                                  SEAWAT Version 4
      U.S. GEOLOGICAL SURVEY MODULAR FINITE-DIFFERENCE GROUND-WATER FLOW MODEL
                           VERSION 4.00.05 10/19/2012


 This model run combines GLOBAL and LIST output into this single file.

 GLOBAL LISTING FILE: imod-wq_tmp/henry.list
                         UNIT   10

 OPENING imod-wq_tmp/henry.bas6
 FILE TYPE:BAS6   UNIT   11   STATUS:OLD    
 FORMAT:FORMATTED              ACCESS:SEQUENTIAL          

 OPENING imod-wq_tmp/henry.dis
 FILE TYPE:DIS   UNIT   15   STATUS:OLD    
 FORMAT:FORMATTED              ACCESS:SEQUENTIAL          

 OPENING imod-wq_tmp/henry.lpf
 FILE TYPE:LPF   UNIT   20   STATUS:OLD    
 FORMAT:FORMATTED              ACCESS:SEQUENTIAL          

 OPENING imod-wq_tmp/henry.oc
 FILE TYPE:OC   UNIT   21   STATUS:OLD    
 FORMAT:FORMATTED              ACCESS:SEQUENTIAL          

 OPENING imod-wq_tmp/henry.pcg
 FILE TYPE:PCG   UNIT   22   STATUS:OLD    
 FORMAT:FORMATTED              ACCESS:SEQUENTIAL          

 OPENING imod-wq_tmp/henry.vdf
 FILE TYPE:VDF   UNIT   26   STATUS:OLD    
 FORMAT:FORMATTED              ACCESS:SEQUENTIAL          

 OPENING imod-wq_tmp/henry.wel
 FILE TYPE:WEL   UNIT   27   STATUS:OLD    
 FORMAT:FORMATTED              ACCESS:SEQUENTIAL          

 OPENING imod-wq_tmp/henry.adv
 FILE TYPE:ADV   UNIT   29   STATUS:OLD    
 FORMAT:FORMATTED              ACCESS:SEQUENTIAL          

 OPENING imod-wq_tmp/henry.btn
 FILE TYPE:BTN   UNIT   30   STATUS:OLD    
 FORMAT:FORMATTED              ACCESS:SEQUENTIAL          

 OPENING imod-wq_tmp/henry.dsp
 FILE TYPE:DSP   UNIT   31   STATUS:OLD    
 FORMAT:FORMATTED              ACCESS:SEQUENTIAL          

 OPENING imod-wq_tmp/henry.gcg
 FILE TYPE:GCG   UNIT   33   STATUS:OLD    
 FORMAT:FORMATTED              ACCESS:SEQUENTIAL          

 OPENING imod-wq_tmp/henry.ssm
 FILE TYPE:SSM   UNIT   35   STATUS:OLD    
 FORMAT:FORMATTED              ACCESS:SEQUENTIAL          

 OPENING imod-wq_tmp/henry.met
 FILE TYPE:MET   UNIT   39   STATUS:OLD    
 FORMAT:FORMATTED              ACCESS:SEQUENTIAL          

 OPENING btn\icbund_l1.idf
 FILE TYPE:DATA(IDF)   UNIT   42   STATUS:UNKNOWN
 FORMAT:FORMATTED              ACCESS:SEQUENTIAL          

 OPENING btn\icbund_l2.idf
 FILE TYPE:DATA(IDF)   UNIT   44   STATUS:UNKNOWN
 FORMAT:FORMATTED              ACCESS:SEQUENTIAL          

 OPENING btn\icbund_l3.idf
 FILE TYPE:DATA(IDF)   UNIT   46   STATUS:UNKNOWN
 FORMAT:FORMATTED              ACCESS:SEQUENTIAL          

 OPENING btn\icbund_l4.idf
 FILE TYPE:DATA(IDF)   UNIT   48   STATUS:UNKNOWN
 FORMAT:FORMATTED              ACCESS:SEQUENTIAL          

 OPENING btn\icbund_l5.idf
 FILE TYPE:DATA(IDF)   UNIT   50   STATUS:UNKNOWN
 FORMAT:FORMATTED              ACCESS:SEQUENTIAL          

 OPENING btn\icbund_l6.idf
 FILE TYPE:DATA(IDF)   UNIT   52   STATUS:UNKNOWN
 FORMAT:FORMATTED              ACCESS:SEQUENTIAL          

 OPENING btn\icbund_l7.idf
 FILE TYPE:DATA(IDF)   UNIT   54   STATUS:UNKNOWN
 FORMAT:FORMATTED              ACCESS:SEQUENTIAL          

 OPENING btn\icbund_l8.idf
 FILE TYPE:DATA(IDF)   UNIT   56   STATUS:UNKNOWN
 FORMAT:FORMATTED              ACCESS:SEQUENTIAL          

 OPENING btn\icbund_l9.idf
 FILE TYPE:DATA(IDF)   UNIT   58   STATUS:UNKNOWN
 FORMAT:FORMATTED              ACCESS:SEQUENTIAL          

 OPENING btn\icbund_l10.idf
 FILE TYPE:DATA(IDF)   UNIT   60   STATUS:UNKNOWN
 FORMAT:FORMATTED              ACCESS:SEQUENTIAL          

 OPENING btn\icbund_l11.idf
 FILE TYPE:DATA(IDF)   UNIT   61   STATUS:UNKNOWN
 FORMAT:FORMATTED              ACCESS:SEQUENTIAL          

 OPENING btn\icbund_l12.idf
 FILE TYPE:DATA(IDF)   UNIT   62   STATUS:UNKNOWN
 FORMAT:FORMATTED              ACCESS:SEQUENTIAL          

 OPENING btn\icbund_l13.idf
 FILE TYPE:DATA(IDF)   UNIT   63   STATUS:UNKNOWN
 FORMAT:FORMATTED              ACCESS:SEQUENTIAL          

 OPENING btn\icbund_l14.idf
 FILE TYPE:DATA(IDF)   UNIT   64   STATUS:UNKNOWN
 FORMAT:FORMATTED              ACCESS:SEQUENTIAL          

 OPENING btn\icbund_l15.idf
 FILE TYPE:DATA(IDF)   UNIT   65   STATUS:UNKNOWN
 FORMAT:FORMATTED              ACCESS:SEQUENTIAL          

 OPENING btn\icbund_l16.idf
 FILE TYPE:DATA(IDF)   UNIT   66   STATUS:UNKNOWN
 FORMAT:FORMATTED              ACCESS:SEQUENTIAL          

 OPENING btn\icbund_l17.idf
 FILE TYPE:DATA(IDF)   UNIT   67   STATUS:UNKNOWN
 FORMAT:FORMATTED              ACCESS:SEQUENTIAL          

 OPENING btn\icbund_l18.idf
 FILE TYPE:DATA(IDF)   UNIT   68   STATUS:UNKNOWN
 FORMAT:FORMATTED              ACCESS:SEQUENTIAL          

 OPENING btn\icbund_l19.idf
 FILE TYPE:DATA(IDF)   UNIT   69   STATUS:UNKNOWN
 FORMAT:FORMATTED              ACCESS:SEQUENTIAL          

 OPENING btn\icbund_l20.idf
 FILE TYPE:DATA(IDF)   UNIT   70   STATUS:UNKNOWN
 FORMAT:FORMATTED              ACCESS:SEQUENTIAL          

 OPENING btn\icbund_l21.idf
 FILE TYPE:DATA(IDF)   UNIT   71   STATUS:UNKNOWN
 FORMAT:FORMATTED              ACCESS:SEQUENTIAL          

 OPENING btn\icbund_l22.idf
 FILE TYPE:DATA(IDF)   UNIT   72   STATUS:UNKNOWN
 FORMAT:FORMATTED              ACCESS:SEQUENTIAL          

 OPENING btn\icbund_l23.idf
 FILE TYPE:DATA(IDF)   UNIT   73   STATUS:UNKNOWN
 FORMAT:FORMATTED              ACCESS:SEQUENTIAL          

 OPENING btn\icbund_l24.idf
 FILE TYPE:DATA(IDF)   UNIT   74   STATUS:UNKNOWN
 FORMAT:FORMATTED              ACCESS:SEQUENTIAL          

 OPENING btn\icbund_l25.idf
 FILE TYPE:DATA(IDF)   UNIT   75   STATUS:UNKNOWN
 FORMAT:FORMATTED              ACCESS:SEQUENTIAL          

 OPENING btn\icbund_l26.idf
 FILE TYPE:DATA(IDF)   UNIT   76   STATUS:UNKNOWN
 FORMAT:FORMATTED              ACCESS:SEQUENTIAL          

 OPENING btn\icbund_l27.idf
 FILE TYPE:DATA(IDF)   UNIT   77   STATUS:UNKNOWN
 FORMAT:FORMATTED              ACCESS:SEQUENTIAL          

 OPENING btn\icbund_l28.idf
 FILE TYPE:DATA(IDF)   UNIT   78   STATUS:UNKNOWN
 FORMAT:FORMATTED              ACCESS:SEQUENTIAL          

 OPENING btn\icbund_l29.idf
 FILE TYPE:DATA(IDF)   UNIT   79   STATUS:UNKNOWN
 FORMAT:FORMATTED              ACCESS:SEQUENTIAL          

 OPENING btn\icbund_l30.idf
 FILE TYPE:DATA(IDF)   UNIT   80   STATUS:UNKNOWN
 FORMAT:FORMATTED              ACCESS:SEQUENTIAL          

 OPENING btn\icbund_l31.idf
 FILE TYPE:DATA(IDF)   UNIT   81   STATUS:UNKNOWN
 FORMAT:FORMATTED              ACCESS:SEQUENTIAL          

 OPENING btn\icbund_l32.idf
 FILE TYPE:DATA(IDF)   UNIT   82   STATUS:UNKNOWN
 FORMAT:FORMATTED              ACCESS:SEQUENTIAL          

 OPENING btn\icbund_l33.idf
 FILE TYPE:DATA(IDF)   UNIT   83   STATUS:UNKNOWN
 FORMAT:FORMATTED              ACCESS:SEQUENTIAL          

 OPENING btn\icbund_l34.idf
 FILE TYPE:DATA(IDF)   UNIT   84   STATUS:UNKNOWN
 FORMAT:FORMATTED              ACCESS:SEQUENTIAL          

 OPENING btn\icbund_l35.idf
 FILE TYPE:DATA(IDF)   UNIT   85   STATUS:UNKNOWN
 FORMAT:FORMATTED              ACCESS:SEQUENTIAL          

 OPENING btn\icbund_l36.idf
 FILE TYPE:DATA(IDF)   UNIT   86   STATUS:UNKNOWN
 FORMAT:FORMATTED              ACCESS:SEQUENTIAL          

 OPENING btn\icbund_l37.idf
 FILE TYPE:DATA(IDF)   UNIT   87   STATUS:UNKNOWN
 FORMAT:FORMATTED              ACCESS:SEQUENTIAL          

 OPENING btn\icbund_l38.idf
 FILE TYPE:DATA(IDF)   UNIT   88   STATUS:UNKNOWN
 FORMAT:FORMATTED              ACCESS:SEQUENTIAL          

 OPENING btn\icbund_l39.idf
 FILE TYPE:DATA(IDF)   UNIT   89   STATUS:UNKNOWN
 FORMAT:FORMATTED              ACCESS:SEQUENTIAL          

 OPENING btn\icbund_l40.idf
 FILE TYPE:DATA(IDF)   UNIT   90   STATUS:UNKNOWN
 FORMAT:FORMATTED              ACCESS:SEQUENTIAL          

 OPENING btn\icbund_l41.idf
 FILE TYPE:DATA(IDF)   UNIT   91   STATUS:UNKNOWN
 FORMAT:FORMATTED              ACCESS:SEQUENTIAL          

 OPENING btn\icbund_l42.idf
 FILE TYPE:DATA(IDF)   UNIT   92   STATUS:UNKNOWN
 FORMAT:FORMATTED              ACCESS:SEQUENTIAL          

 OPENING btn\icbund_l43.idf
 FILE TYPE:DATA(IDF)   UNIT   93   STATUS:UNKNOWN
 FORMAT:FORMATTED              ACCESS:SEQUENTIAL          

 OPENING btn\icbund_l44.idf
 FILE TYPE:DATA(IDF)   UNIT   94   STATUS:UNKNOWN
 FORMAT:FORMATTED              ACCESS:SEQUENTIAL          

 OPENING btn\icbund_l45.idf
 FILE TYPE:DATA(IDF)   UNIT   95   STATUS:UNKNOWN
 FORMAT:FORMATTED              ACCESS:SEQUENTIAL          

 OPENING btn\icbund_l46.idf
 FILE TYPE:DATA(IDF)   UNIT   96   STATUS:UNKNOWN
 FORMAT:FORMATTED              ACCESS:SEQUENTIAL          

 OPENING btn\icbund_l47.idf
 FILE TYPE:DATA(IDF)   UNIT   97   STATUS:UNKNOWN
 FORMAT:FORMATTED              ACCESS:SEQUENTIAL          

 OPENING btn\icbund_l48.idf
 FILE TYPE:DATA(IDF)   UNIT   98   STATUS:UNKNOWN
 FORMAT:FORMATTED              ACCESS:SEQUENTIAL          

 OPENING btn\icbund_l49.idf
 FILE TYPE:DATA(IDF)   UNIT  104   STATUS:UNKNOWN
 FORMAT:FORMATTED              ACCESS:SEQUENTIAL          

 OPENING btn\icbund_l50.idf
 FILE TYPE:DATA(IDF)   UNIT  105   STATUS:UNKNOWN
 FORMAT:FORMATTED              ACCESS:SEQUENTIAL          

 OPENING btn\starting_concentration_l1.idf
 FILE TYPE:DATA(IDF)   UNIT  106   STATUS:UNKNOWN
 FORMAT:FORMATTED              ACCESS:SEQUENTIAL          

 OPENING btn\starting_concentration_l2.idf
 FILE TYPE:DATA(IDF)   UNIT  107   STATUS:UNKNOWN
 FORMAT:FORMATTED              ACCESS:SEQUENTIAL          

 OPENING btn\starting_concentration_l3.idf
 FILE TYPE:DATA(IDF)   UNIT  108   STATUS:UNKNOWN
 FORMAT:FORMATTED              ACCESS:SEQUENTIAL          

 OPENING btn\starting_concentration_l4.idf
 FILE TYPE:DATA(IDF)   UNIT  109   STATUS:UNKNOWN
 FORMAT:FORMATTED              ACCESS:SEQUENTIAL          

 OPENING btn\starting_concentration_l5.idf
 FILE TYPE:DATA(IDF)   UNIT  110   STATUS:UNKNOWN
 FORMAT:FORMATTED              ACCESS:SEQUENTIAL          

 OPENING btn\starting_concentration_l6.idf
 FILE TYPE:DATA(IDF)   UNIT  111   STATUS:UNKNOWN
 FORMAT:FORMATTED              ACCESS:SEQUENTIAL          

 OPENING btn\starting_concentration_l7.idf
 FILE TYPE:DATA(IDF)   UNIT  112   STATUS:UNKNOWN
 FORMAT:FORMATTED              ACCESS:SEQUENTIAL          

 OPENING btn\starting_concentration_l8.idf
 FILE TYPE:DATA(IDF)   UNIT  113   STATUS:UNKNOWN
 FORMAT:FORMATTED              ACCESS:SEQUENTIAL          

 OPENING btn\starting_concentration_l9.idf
 FILE TYPE:DATA(IDF)   UNIT  114   STATUS:UNKNOWN
 FORMAT:FORMATTED              ACCESS:SEQUENTIAL          

 OPENING btn\starting_concentration_l10.idf
 FILE TYPE:DATA(IDF)   UNIT  115   STATUS:UNKNOWN
 FORMAT:FORMATTED              ACCESS:SEQUENTIAL          

 OPENING btn\starting_concentration_l11.idf
 FILE TYPE:DATA(IDF)   UNIT  116   STATUS:UNKNOWN
 FORMAT:FORMATTED              ACCESS:SEQUENTIAL          

 OPENING btn\starting_concentration_l12.idf
 FILE TYPE:DATA(IDF)   UNIT  117   STATUS:UNKNOWN
 FORMAT:FORMATTED              ACCESS:SEQUENTIAL          

 OPENING btn\starting_concentration_l13.idf
 FILE TYPE:DATA(IDF)   UNIT  118   STATUS:UNKNOWN
 FORMAT:FORMATTED              ACCESS:SEQUENTIAL          

 OPENING btn\starting_concentration_l14.idf
 FILE TYPE:DATA(IDF)   UNIT  119   STATUS:UNKNOWN
 FORMAT:FORMATTED              ACCESS:SEQUENTIAL          

 OPENING btn\starting_concentration_l15.idf
 FILE TYPE:DATA(IDF)   UNIT  120   STATUS:UNKNOWN
 FORMAT:FORMATTED              ACCESS:SEQUENTIAL          

 OPENING btn\starting_concentration_l16.idf
 FILE TYPE:DATA(IDF)   UNIT  121   STATUS:UNKNOWN
 FORMAT:FORMATTED              ACCESS:SEQUENTIAL          

 OPENING btn\starting_concentration_l17.idf
 FILE TYPE:DATA(IDF)   UNIT  122   STATUS:UNKNOWN
 FORMAT:FORMATTED              ACCESS:SEQUENTIAL          

 OPENING btn\starting_concentration_l18.idf
 FILE TYPE:DATA(IDF)   UNIT  123   STATUS:UNKNOWN
 FORMAT:FORMATTED              ACCESS:SEQUENTIAL          

 OPENING btn\starting_concentration_l19.idf
 FILE TYPE:DATA(IDF)   UNIT  124   STATUS:UNKNOWN
 FORMAT:FORMATTED              ACCESS:SEQUENTIAL          

 OPENING btn\starting_concentration_l20.idf
 FILE TYPE:DATA(IDF)   UNIT  125   STATUS:UNKNOWN
 FORMAT:FORMATTED              ACCESS:SEQUENTIAL          

 OPENING btn\starting_concentration_l21.idf
 FILE TYPE:DATA(IDF)   UNIT  126   STATUS:UNKNOWN
 FORMAT:FORMATTED              ACCESS:SEQUENTIAL          

 OPENING btn\starting_concentration_l22.idf
 FILE TYPE:DATA(IDF)   UNIT  127   STATUS:UNKNOWN
 FORMAT:FORMATTED              ACCESS:SEQUENTIAL          

 OPENING btn\starting_concentration_l23.idf
 FILE TYPE:DATA(IDF)   UNIT  128   STATUS:UNKNOWN
 FORMAT:FORMATTED              ACCESS:SEQUENTIAL          

 OPENING btn\starting_concentration_l24.idf
 FILE TYPE:DATA(IDF)   UNIT  129   STATUS:UNKNOWN
 FORMAT:FORMATTED              ACCESS:SEQUENTIAL          

 OPENING btn\starting_concentration_l25.idf
 FILE TYPE:DATA(IDF)   UNIT  130   STATUS:UNKNOWN
 FORMAT:FORMATTED              ACCESS:SEQUENTIAL          

 OPENING btn\starting_concentration_l26.idf
 FILE TYPE:DATA(IDF)   UNIT  131   STATUS:UNKNOWN
 FORMAT:FORMATTED              ACCESS:SEQUENTIAL          

 OPENING btn\starting_concentration_l27.idf
 FILE TYPE:DATA(IDF)   UNIT  132   STATUS:UNKNOWN
 FORMAT:FORMATTED              ACCESS:SEQUENTIAL          

 OPENING btn\starting_concentration_l28.idf
 FILE TYPE:DATA(IDF)   UNIT  133   STATUS:UNKNOWN
 FORMAT:FORMATTED              ACCESS:SEQUENTIAL          

 OPENING btn\starting_concentration_l29.idf
 FILE TYPE:DATA(IDF)   UNIT  134   STATUS:UNKNOWN
 FORMAT:FORMATTED              ACCESS:SEQUENTIAL          

 OPENING btn\starting_concentration_l30.idf
 FILE TYPE:DATA(IDF)   UNIT  135   STATUS:UNKNOWN
 FORMAT:FORMATTED              ACCESS:SEQUENTIAL          

 OPENING btn\starting_concentration_l31.idf
 FILE TYPE:DATA(IDF)   UNIT  136   STATUS:UNKNOWN
 FORMAT:FORMATTED              ACCESS:SEQUENTIAL          

 OPENING btn\starting_concentration_l32.idf
 FILE TYPE:DATA(IDF)   UNIT  137   STATUS:UNKNOWN
 FORMAT:FORMATTED              ACCESS:SEQUENTIAL          

 OPENING btn\starting_concentration_l33.idf
 FILE TYPE:DATA(IDF)   UNIT  138   STATUS:UNKNOWN
 FORMAT:FORMATTED              ACCESS:SEQUENTIAL          

 OPENING btn\starting_concentration_l34.idf
 FILE TYPE:DATA(IDF)   UNIT  139   STATUS:UNKNOWN
 FORMAT:FORMATTED              ACCESS:SEQUENTIAL          

 OPENING btn\starting_concentration_l35.idf
 FILE TYPE:DATA(IDF)   UNIT  140   STATUS:UNKNOWN
 FORMAT:FORMATTED              ACCESS:SEQUENTIAL          

 OPENING btn\starting_concentration_l36.idf
 FILE TYPE:DATA(IDF)   UNIT  141   STATUS:UNKNOWN
 FORMAT:FORMATTED              ACCESS:SEQUENTIAL          

 OPENING btn\starting_concentration_l37.idf
 FILE TYPE:DATA(IDF)   UNIT  142   STATUS:UNKNOWN
 FORMAT:FORMATTED              ACCESS:SEQUENTIAL          

 OPENING btn\starting_concentration_l38.idf
 FILE TYPE:DATA(IDF)   UNIT  143   STATUS:UNKNOWN
 FORMAT:FORMATTED              ACCESS:SEQUENTIAL          

 OPENING btn\starting_concentration_l39.idf
 FILE TYPE:DATA(IDF)   UNIT  144   STATUS:UNKNOWN
 FORMAT:FORMATTED              ACCESS:SEQUENTIAL          

 OPENING btn\starting_concentration_l40.idf
 FILE TYPE:DATA(IDF)   UNIT  145   STATUS:UNKNOWN
 FORMAT:FORMATTED              ACCESS:SEQUENTIAL          

 OPENING btn\starting_concentration_l41.idf
 FILE TYPE:DATA(IDF)   UNIT  146   STATUS:UNKNOWN
 FORMAT:FORMATTED              ACCESS:SEQUENTIAL          

 OPENING btn\starting_concentration_l42.idf
 FILE TYPE:DATA(IDF)   UNIT  147   STATUS:UNKNOWN
 FORMAT:FORMATTED              ACCESS:SEQUENTIAL          

 OPENING btn\starting_concentration_l43.idf
 FILE TYPE:DATA(IDF)   UNIT  148   STATUS:UNKNOWN
 FORMAT:FORMATTED              ACCESS:SEQUENTIAL          

 OPENING btn\starting_concentration_l44.idf
 FILE TYPE:DATA(IDF)   UNIT  149   STATUS:UNKNOWN
 FORMAT:FORMATTED              ACCESS:SEQUENTIAL          

 OPENING btn\starting_concentration_l45.idf
 FILE TYPE:DATA(IDF)   UNIT  150   STATUS:UNKNOWN
 FORMAT:FORMATTED              ACCESS:SEQUENTIAL          

 OPENING btn\starting_concentration_l46.idf
 FILE TYPE:DATA(IDF)   UNIT  151   STATUS:UNKNOWN
 FORMAT:FORMATTED              ACCESS:SEQUENTIAL          

 OPENING btn\starting_concentration_l47.idf
 FILE TYPE:DATA(IDF)   UNIT  152   STATUS:UNKNOWN
 FORMAT:FORMATTED              ACCESS:SEQUENTIAL          

 OPENING btn\starting_concentration_l48.idf
 FILE TYPE:DATA(IDF)   UNIT  153   STATUS:UNKNOWN
 FORMAT:FORMATTED              ACCESS:SEQUENTIAL          

 OPENING btn\starting_concentration_l49.idf
 FILE TYPE:DATA(IDF)   UNIT  154   STATUS:UNKNOWN
 FORMAT:FORMATTED              ACCESS:SEQUENTIAL          

 OPENING btn\starting_concentration_l50.idf
 FILE TYPE:DATA(IDF)   UNIT  155   STATUS:UNKNOWN
 FORMAT:FORMATTED              ACCESS:SEQUENTIAL          

 OPENING bas\ibound_l1.idf
 FILE TYPE:DATA(IDF)   UNIT  156   STATUS:UNKNOWN
 FORMAT:FORMATTED              ACCESS:SEQUENTIAL          

 OPENING bas\ibound_l2.idf
 FILE TYPE:DATA(IDF)   UNIT  157   STATUS:UNKNOWN
 FORMAT:FORMATTED              ACCESS:SEQUENTIAL          

 OPENING bas\ibound_l3.idf
 FILE TYPE:DATA(IDF)   UNIT  158   STATUS:UNKNOWN
 FORMAT:FORMATTED              ACCESS:SEQUENTIAL          

 OPENING bas\ibound_l4.idf
 FILE TYPE:DATA(IDF)   UNIT  159   STATUS:UNKNOWN
 FORMAT:FORMATTED              ACCESS:SEQUENTIAL          

 OPENING bas\ibound_l5.idf
 FILE TYPE:DATA(IDF)   UNIT  160   STATUS:UNKNOWN
 FORMAT:FORMATTED              ACCESS:SEQUENTIAL          

 OPENING bas\ibound_l6.idf
 FILE TYPE:DATA(IDF)   UNIT  161   STATUS:UNKNOWN
 FORMAT:FORMATTED              ACCESS:SEQUENTIAL          

 OPENING bas\ibound_l7.idf
 FILE TYPE:DATA(IDF)   UNIT  162   STATUS:UNKNOWN
 FORMAT:FORMATTED              ACCESS:SEQUENTIAL          

 OPENING bas\ibound_l8.idf
 FILE TYPE:DATA(IDF)   UNIT  163   STATUS:UNKNOWN
 FORMAT:FORMATTED              ACCESS:SEQUENTIAL          

 OPENING bas\ibound_l9.idf
 FILE TYPE:DATA(IDF)   UNIT  164   STATUS:UNKNOWN
 FORMAT:FORMATTED              ACCESS:SEQUENTIAL          

 OPENING bas\ibound_l10.idf
 FILE TYPE:DATA(IDF)   UNIT  165   STATUS:UNKNOWN
 FORMAT:FORMATTED              ACCESS:SEQUENTIAL          

 OPENING bas\ibound_l11.idf
 FILE TYPE:DATA(IDF)   UNIT  166   STATUS:UNKNOWN
 FORMAT:FORMATTED              ACCESS:SEQUENTIAL          

 OPENING bas\ibound_l12.idf
 FILE TYPE:DATA(IDF)   UNIT  167   STATUS:UNKNOWN
 FORMAT:FORMATTED              ACCESS:SEQUENTIAL          

 OPENING bas\ibound_l13.idf
 FILE TYPE:DATA(IDF)   UNIT  168   STATUS:UNKNOWN
 FORMAT:FORMATTED              ACCESS:SEQUENTIAL          

 OPENING bas\ibound_l14.idf
 FILE TYPE:DATA(IDF)   UNIT  169   STATUS:UNKNOWN
 FORMAT:FORMATTED              ACCESS:SEQUENTIAL          

 OPENING bas\ibound_l15.idf
 FILE TYPE:DATA(IDF)   UNIT  170   STATUS:UNKNOWN
 FORMAT:FORMATTED              ACCESS:SEQUENTIAL          

 OPENING bas\ibound_l16.idf
 FILE TYPE:DATA(IDF)   UNIT  171   STATUS:UNKNOWN
 FORMAT:FORMATTED              ACCESS:SEQUENTIAL          

 OPENING bas\ibound_l17.idf
 FILE TYPE:DATA(IDF)   UNIT  172   STATUS:UNKNOWN
 FORMAT:FORMATTED              ACCESS:SEQUENTIAL          

 OPENING bas\ibound_l18.idf
 FILE TYPE:DATA(IDF)   UNIT  173   STATUS:UNKNOWN
 FORMAT:FORMATTED              ACCESS:SEQUENTIAL          

 OPENING bas\ibound_l19.idf
 FILE TYPE:DATA(IDF)   UNIT  174   STATUS:UNKNOWN
 FORMAT:FORMATTED              ACCESS:SEQUENTIAL          

 OPENING bas\ibound_l20.idf
 FILE TYPE:DATA(IDF)   UNIT  175   STATUS:UNKNOWN
 FORMAT:FORMATTED              ACCESS:SEQUENTIAL          

 OPENING bas\ibound_l21.idf
 FILE TYPE:DATA(IDF)   UNIT  176   STATUS:UNKNOWN
 FORMAT:FORMATTED              ACCESS:SEQUENTIAL          

 OPENING bas\ibound_l22.idf
 FILE TYPE:DATA(IDF)   UNIT  177   STATUS:UNKNOWN
 FORMAT:FORMATTED              ACCESS:SEQUENTIAL          

 OPENING bas\ibound_l23.idf
 FILE TYPE:DATA(IDF)   UNIT  178   STATUS:UNKNOWN
 FORMAT:FORMATTED              ACCESS:SEQUENTIAL          

 OPENING bas\ibound_l24.idf
 FILE TYPE:DATA(IDF)   UNIT  179   STATUS:UNKNOWN
 FORMAT:FORMATTED              ACCESS:SEQUENTIAL          

 OPENING bas\ibound_l25.idf
 FILE TYPE:DATA(IDF)   UNIT  180   STATUS:UNKNOWN
 FORMAT:FORMATTED              ACCESS:SEQUENTIAL          

 OPENING bas\ibound_l26.idf
 FILE TYPE:DATA(IDF)   UNIT  181   STATUS:UNKNOWN
 FORMAT:FORMATTED              ACCESS:SEQUENTIAL          

 OPENING bas\ibound_l27.idf
 FILE TYPE:DATA(IDF)   UNIT  182   STATUS:UNKNOWN
 FORMAT:FORMATTED              ACCESS:SEQUENTIAL          

 OPENING bas\ibound_l28.idf
 FILE TYPE:DATA(IDF)   UNIT  183   STATUS:UNKNOWN
 FORMAT:FORMATTED              ACCESS:SEQUENTIAL          

 OPENING bas\ibound_l29.idf
 FILE TYPE:DATA(IDF)   UNIT  184   STATUS:UNKNOWN
 FORMAT:FORMATTED              ACCESS:SEQUENTIAL          

 OPENING bas\ibound_l30.idf
 FILE TYPE:DATA(IDF)   UNIT  185   STATUS:UNKNOWN
 FORMAT:FORMATTED              ACCESS:SEQUENTIAL          

 OPENING bas\ibound_l31.idf
 FILE TYPE:DATA(IDF)   UNIT  186   STATUS:UNKNOWN
 FORMAT:FORMATTED              ACCESS:SEQUENTIAL          

 OPENING bas\ibound_l32.idf
 FILE TYPE:DATA(IDF)   UNIT  187   STATUS:UNKNOWN
 FORMAT:FORMATTED              ACCESS:SEQUENTIAL          

 OPENING bas\ibound_l33.idf
 FILE TYPE:DATA(IDF)   UNIT  188   STATUS:UNKNOWN
 FORMAT:FORMATTED              ACCESS:SEQUENTIAL          

 OPENING bas\ibound_l34.idf
 FILE TYPE:DATA(IDF)   UNIT  189   STATUS:UNKNOWN
 FORMAT:FORMATTED              ACCESS:SEQUENTIAL          

 OPENING bas\ibound_l35.idf
 FILE TYPE:DATA(IDF)   UNIT  190   STATUS:UNKNOWN
 FORMAT:FORMATTED              ACCESS:SEQUENTIAL          

 OPENING bas\ibound_l36.idf
 FILE TYPE:DATA(IDF)   UNIT  191   STATUS:UNKNOWN
 FORMAT:FORMATTED              ACCESS:SEQUENTIAL          

 OPENING bas\ibound_l37.idf
 FILE TYPE:DATA(IDF)   UNIT  192   STATUS:UNKNOWN
 FORMAT:FORMATTED              ACCESS:SEQUENTIAL          

 OPENING bas\ibound_l38.idf
 FILE TYPE:DATA(IDF)   UNIT  193   STATUS:UNKNOWN
 FORMAT:FORMATTED              ACCESS:SEQUENTIAL          

 OPENING bas\ibound_l39.idf
 FILE TYPE:DATA(IDF)   UNIT  194   STATUS:UNKNOWN
 FORMAT:FORMATTED              ACCESS:SEQUENTIAL          

 OPENING bas\ibound_l40.idf
 FILE TYPE:DATA(IDF)   UNIT  195   STATUS:UNKNOWN
 FORMAT:FORMATTED              ACCESS:SEQUENTIAL          

 OPENING bas\ibound_l41.idf
 FILE TYPE:DATA(IDF)   UNIT  196   STATUS:UNKNOWN
 FORMAT:FORMATTED              ACCESS:SEQUENTIAL          

 OPENING bas\ibound_l42.idf
 FILE TYPE:DATA(IDF)   UNIT  197   STATUS:UNKNOWN
 FORMAT:FORMATTED              ACCESS:SEQUENTIAL          

 OPENING bas\ibound_l43.idf
 FILE TYPE:DATA(IDF)   UNIT  198   STATUS:UNKNOWN
 FORMAT:FORMATTED              ACCESS:SEQUENTIAL          

 OPENING bas\ibound_l44.idf
 FILE TYPE:DATA(IDF)   UNIT  199   STATUS:UNKNOWN
 FORMAT:FORMATTED              ACCESS:SEQUENTIAL          

 OPENING bas\ibound_l45.idf
 FILE TYPE:DATA(IDF)   UNIT  201   STATUS:UNKNOWN
 FORMAT:FORMATTED              ACCESS:SEQUENTIAL          

 OPENING bas\ibound_l46.idf
 FILE TYPE:DATA(IDF)   UNIT  202   STATUS:UNKNOWN
 FORMAT:FORMATTED              ACCESS:SEQUENTIAL          

 OPENING bas\ibound_l47.idf
 FILE TYPE:DATA(IDF)   UNIT  203   STATUS:UNKNOWN
 FORMAT:FORMATTED              ACCESS:SEQUENTIAL          

 OPENING bas\ibound_l48.idf
 FILE TYPE:DATA(IDF)   UNIT  204   STATUS:UNKNOWN
 FORMAT:FORMATTED              ACCESS:SEQUENTIAL          

 OPENING bas\ibound_l49.idf
 FILE TYPE:DATA(IDF)   UNIT  205   STATUS:UNKNOWN
 FORMAT:FORMATTED              ACCESS:SEQUENTIAL          

 OPENING bas\ibound_l50.idf
 FILE TYPE:DATA(IDF)   UNIT  206   STATUS:UNKNOWN
 FORMAT:FORMATTED              ACCESS:SEQUENTIAL          

 OPENING lpf\k_horizontal_l1.idf
 FILE TYPE:DATA(IDF)   UNIT  207   STATUS:UNKNOWN
 FORMAT:FORMATTED              ACCESS:SEQUENTIAL          

 OPENING lpf\k_vertical_l1.idf
 FILE TYPE:DATA(IDF)   UNIT  208   STATUS:UNKNOWN
 FORMAT:FORMATTED              ACCESS:SEQUENTIAL          

 OPENING lpf\k_horizontal_l2.idf
 FILE TYPE:DATA(IDF)   UNIT  209   STATUS:UNKNOWN
 FORMAT:FORMATTED              ACCESS:SEQUENTIAL          

 OPENING lpf\k_vertical_l2.idf
 FILE TYPE:DATA(IDF)   UNIT  210   STATUS:UNKNOWN
 FORMAT:FORMATTED              ACCESS:SEQUENTIAL          

 OPENING lpf\k_horizontal_l3.idf
 FILE TYPE:DATA(IDF)   UNIT  211   STATUS:UNKNOWN
 FORMAT:FORMATTED              ACCESS:SEQUENTIAL          

 OPENING lpf\k_vertical_l3.idf
 FILE TYPE:DATA(IDF)   UNIT  212   STATUS:UNKNOWN
 FORMAT:FORMATTED              ACCESS:SEQUENTIAL          

 OPENING lpf\k_horizontal_l4.idf
 FILE TYPE:DATA(IDF)   UNIT  213   STATUS:UNKNOWN
 FORMAT:FORMATTED              ACCESS:SEQUENTIAL          

 OPENING lpf\k_vertical_l4.idf
 FILE TYPE:DATA(IDF)   UNIT  214   STATUS:UNKNOWN
 FORMAT:FORMATTED              ACCESS:SEQUENTIAL          

 OPENING lpf\k_horizontal_l5.idf
 FILE TYPE:DATA(IDF)   UNIT  215   STATUS:UNKNOWN
 FORMAT:FORMATTED              ACCESS:SEQUENTIAL          

 OPENING lpf\k_vertical_l5.idf
 FILE TYPE:DATA(IDF)   UNIT  216   STATUS:UNKNOWN
 FORMAT:FORMATTED              ACCESS:SEQUENTIAL          

 OPENING lpf\k_horizontal_l6.idf
 FILE TYPE:DATA(IDF)   UNIT  217   STATUS:UNKNOWN
 FORMAT:FORMATTED              ACCESS:SEQUENTIAL          

 OPENING lpf\k_vertical_l6.idf
 FILE TYPE:DATA(IDF)   UNIT  218   STATUS:UNKNOWN
 FORMAT:FORMATTED              ACCESS:SEQUENTIAL          

 OPENING lpf\k_horizontal_l7.idf
 FILE TYPE:DATA(IDF)   UNIT  219   STATUS:UNKNOWN
 FORMAT:FORMATTED              ACCESS:SEQUENTIAL          

 OPENING lpf\k_vertical_l7.idf
 FILE TYPE:DATA(IDF)   UNIT  220   STATUS:UNKNOWN
 FORMAT:FORMATTED              ACCESS:SEQUENTIAL          

 OPENING lpf\k_horizontal_l8.idf
 FILE TYPE:DATA(IDF)   UNIT  221   STATUS:UNKNOWN
 FORMAT:FORMATTED              ACCESS:SEQUENTIAL          

 OPENING lpf\k_vertical_l8.idf
 FILE TYPE:DATA(IDF)   UNIT  222   STATUS:UNKNOWN
 FORMAT:FORMATTED              ACCESS:SEQUENTIAL          

 OPENING lpf\k_horizontal_l9.idf
 FILE TYPE:DATA(IDF)   UNIT  223   STATUS:UNKNOWN
 FORMAT:FORMATTED              ACCESS:SEQUENTIAL          

 OPENING lpf\k_vertical_l9.idf
 FILE TYPE:DATA(IDF)   UNIT  224   STATUS:UNKNOWN
 FORMAT:FORMATTED              ACCESS:SEQUENTIAL          

 OPENING lpf\k_horizontal_l10.idf
 FILE TYPE:DATA(IDF)   UNIT  225   STATUS:UNKNOWN
 FORMAT:FORMATTED              ACCESS:SEQUENTIAL          

 OPENING lpf\k_vertical_l10.idf
 FILE TYPE:DATA(IDF)   UNIT  226   STATUS:UNKNOWN
 FORMAT:FORMATTED              ACCESS:SEQUENTIAL          

 OPENING lpf\k_horizontal_l11.idf
 FILE TYPE:DATA(IDF)   UNIT  227   STATUS:UNKNOWN
 FORMAT:FORMATTED              ACCESS:SEQUENTIAL          

 OPENING lpf\k_vertical_l11.idf
 FILE TYPE:DATA(IDF)   UNIT  228   STATUS:UNKNOWN
 FORMAT:FORMATTED              ACCESS:SEQUENTIAL          

 OPENING lpf\k_horizontal_l12.idf
 FILE TYPE:DATA(IDF)   UNIT  229   STATUS:UNKNOWN
 FORMAT:FORMATTED              ACCESS:SEQUENTIAL          

 OPENING lpf\k_vertical_l12.idf
 FILE TYPE:DATA(IDF)   UNIT  230   STATUS:UNKNOWN
 FORMAT:FORMATTED              ACCESS:SEQUENTIAL          

 OPENING lpf\k_horizontal_l13.idf
 FILE TYPE:DATA(IDF)   UNIT  231   STATUS:UNKNOWN
 FORMAT:FORMATTED              ACCESS:SEQUENTIAL          

 OPENING lpf\k_vertical_l13.idf
 FILE TYPE:DATA(IDF)   UNIT  232   STATUS:UNKNOWN
 FORMAT:FORMATTED              ACCESS:SEQUENTIAL          

 OPENING lpf\k_horizontal_l14.idf
 FILE TYPE:DATA(IDF)   UNIT  233   STATUS:UNKNOWN
 FORMAT:FORMATTED              ACCESS:SEQUENTIAL          

 OPENING lpf\k_vertical_l14.idf
 FILE TYPE:DATA(IDF)   UNIT  234   STATUS:UNKNOWN
 FORMAT:FORMATTED              ACCESS:SEQUENTIAL          

 OPENING lpf\k_horizontal_l15.idf
 FILE TYPE:DATA(IDF)   UNIT  235   STATUS:UNKNOWN
 FORMAT:FORMATTED              ACCESS:SEQUENTIAL          

 OPENING lpf\k_vertical_l15.idf
 FILE TYPE:DATA(IDF)   UNIT  236   STATUS:UNKNOWN
 FORMAT:FORMATTED              ACCESS:SEQUENTIAL          

 OPENING lpf\k_horizontal_l16.idf
 FILE TYPE:DATA(IDF)   UNIT  237   STATUS:UNKNOWN
 FORMAT:FORMATTED              ACCESS:SEQUENTIAL          

 OPENING lpf\k_vertical_l16.idf
 FILE TYPE:DATA(IDF)   UNIT  238   STATUS:UNKNOWN
 FORMAT:FORMATTED              ACCESS:SEQUENTIAL          

 OPENING lpf\k_horizontal_l17.idf
 FILE TYPE:DATA(IDF)   UNIT  239   STATUS:UNKNOWN
 FORMAT:FORMATTED              ACCESS:SEQUENTIAL          

 OPENING lpf\k_vertical_l17.idf
 FILE TYPE:DATA(IDF)   UNIT  240   STATUS:UNKNOWN
 FORMAT:FORMATTED              ACCESS:SEQUENTIAL          

 OPENING lpf\k_horizontal_l18.idf
 FILE TYPE:DATA(IDF)   UNIT  241   STATUS:UNKNOWN
 FORMAT:FORMATTED              ACCESS:SEQUENTIAL          

 OPENING lpf\k_vertical_l18.idf
 FILE TYPE:DATA(IDF)   UNIT  242   STATUS:UNKNOWN
 FORMAT:FORMATTED              ACCESS:SEQUENTIAL          

 OPENING lpf\k_horizontal_l19.idf
 FILE TYPE:DATA(IDF)   UNIT  243   STATUS:UNKNOWN
 FORMAT:FORMATTED              ACCESS:SEQUENTIAL          

 OPENING lpf\k_vertical_l19.idf
 FILE TYPE:DATA(IDF)   UNIT  244   STATUS:UNKNOWN
 FORMAT:FORMATTED              ACCESS:SEQUENTIAL          

 OPENING lpf\k_horizontal_l20.idf
 FILE TYPE:DATA(IDF)   UNIT  245   STATUS:UNKNOWN
 FORMAT:FORMATTED              ACCESS:SEQUENTIAL          

 OPENING lpf\k_vertical_l20.idf
 FILE TYPE:DATA(IDF)   UNIT  246   STATUS:UNKNOWN
 FORMAT:FORMATTED              ACCESS:SEQUENTIAL          

 OPENING lpf\k_horizontal_l21.idf
 FILE TYPE:DATA(IDF)   UNIT  247   STATUS:UNKNOWN
 FORMAT:FORMATTED              ACCESS:SEQUENTIAL          

 OPENING lpf\k_vertical_l21.idf
 FILE TYPE:DATA(IDF)   UNIT  248   STATUS:UNKNOWN
 FORMAT:FORMATTED              ACCESS:SEQUENTIAL          

 OPENING lpf\k_horizontal_l22.idf
 FILE TYPE:DATA(IDF)   UNIT  249   STATUS:UNKNOWN
 FORMAT:FORMATTED              ACCESS:SEQUENTIAL          

 OPENING lpf\k_vertical_l22.idf
 FILE TYPE:DATA(IDF)   UNIT  250   STATUS:UNKNOWN
 FORMAT:FORMATTED              ACCESS:SEQUENTIAL          

 OPENING lpf\k_horizontal_l23.idf
 FILE TYPE:DATA(IDF)   UNIT  251   STATUS:UNKNOWN
 FORMAT:FORMATTED              ACCESS:SEQUENTIAL          

 OPENING lpf\k_vertical_l23.idf
 FILE TYPE:DATA(IDF)   UNIT  252   STATUS:UNKNOWN
 FORMAT:FORMATTED              ACCESS:SEQUENTIAL          

 OPENING lpf\k_horizontal_l24.idf
 FILE TYPE:DATA(IDF)   UNIT  253   STATUS:UNKNOWN
 FORMAT:FORMATTED              ACCESS:SEQUENTIAL          

 OPENING lpf\k_vertical_l24.idf
 FILE TYPE:DATA(IDF)   UNIT  254   STATUS:UNKNOWN
 FORMAT:FORMATTED              ACCESS:SEQUENTIAL          

 OPENING lpf\k_horizontal_l25.idf
 FILE TYPE:DATA(IDF)   UNIT  255   STATUS:UNKNOWN
 FORMAT:FORMATTED              ACCESS:SEQUENTIAL          

 OPENING lpf\k_vertical_l25.idf
 FILE TYPE:DATA(IDF)   UNIT  256   STATUS:UNKNOWN
 FORMAT:FORMATTED              ACCESS:SEQUENTIAL          

 OPENING lpf\k_horizontal_l26.idf
 FILE TYPE:DATA(IDF)   UNIT  257   STATUS:UNKNOWN
 FORMAT:FORMATTED              ACCESS:SEQUENTIAL          

 OPENING lpf\k_vertical_l26.idf
 FILE TYPE:DATA(IDF)   UNIT  258   STATUS:UNKNOWN
 FORMAT:FORMATTED              ACCESS:SEQUENTIAL          

 OPENING lpf\k_horizontal_l27.idf
 FILE TYPE:DATA(IDF)   UNIT  259   STATUS:UNKNOWN
 FORMAT:FORMATTED              ACCESS:SEQUENTIAL          

 OPENING lpf\k_vertical_l27.idf
 FILE TYPE:DATA(IDF)   UNIT  260   STATUS:UNKNOWN
 FORMAT:FORMATTED              ACCESS:SEQUENTIAL          

 OPENING lpf\k_horizontal_l28.idf
 FILE TYPE:DATA(IDF)   UNIT  261   STATUS:UNKNOWN
 FORMAT:FORMATTED              ACCESS:SEQUENTIAL          

 OPENING lpf\k_vertical_l28.idf
 FILE TYPE:DATA(IDF)   UNIT  262   STATUS:UNKNOWN
 FORMAT:FORMATTED              ACCESS:SEQUENTIAL          

 OPENING lpf\k_horizontal_l29.idf
 FILE TYPE:DATA(IDF)   UNIT  263   STATUS:UNKNOWN
 FORMAT:FORMATTED              ACCESS:SEQUENTIAL          

 OPENING lpf\k_vertical_l29.idf
 FILE TYPE:DATA(IDF)   UNIT  264   STATUS:UNKNOWN
 FORMAT:FORMATTED              ACCESS:SEQUENTIAL          

 OPENING lpf\k_horizontal_l30.idf
 FILE TYPE:DATA(IDF)   UNIT  265   STATUS:UNKNOWN
 FORMAT:FORMATTED              ACCESS:SEQUENTIAL          

 OPENING lpf\k_vertical_l30.idf
 FILE TYPE:DATA(IDF)   UNIT  266   STATUS:UNKNOWN
 FORMAT:FORMATTED              ACCESS:SEQUENTIAL          

 OPENING lpf\k_horizontal_l31.idf
 FILE TYPE:DATA(IDF)   UNIT  267   STATUS:UNKNOWN
 FORMAT:FORMATTED              ACCESS:SEQUENTIAL          

 OPENING lpf\k_vertical_l31.idf
 FILE TYPE:DATA(IDF)   UNIT  268   STATUS:UNKNOWN
 FORMAT:FORMATTED              ACCESS:SEQUENTIAL          

 OPENING lpf\k_horizontal_l32.idf
 FILE TYPE:DATA(IDF)   UNIT  269   STATUS:UNKNOWN
 FORMAT:FORMATTED              ACCESS:SEQUENTIAL          

 OPENING lpf\k_vertical_l32.idf
 FILE TYPE:DATA(IDF)   UNIT  270   STATUS:UNKNOWN
 FORMAT:FORMATTED              ACCESS:SEQUENTIAL          

 OPENING lpf\k_horizontal_l33.idf
 FILE TYPE:DATA(IDF)   UNIT  271   STATUS:UNKNOWN
 FORMAT:FORMATTED              ACCESS:SEQUENTIAL          

 OPENING lpf\k_vertical_l33.idf
 FILE TYPE:DATA(IDF)   UNIT  272   STATUS:UNKNOWN
 FORMAT:FORMATTED              ACCESS:SEQUENTIAL          

 OPENING lpf\k_horizontal_l34.idf
 FILE TYPE:DATA(IDF)   UNIT  273   STATUS:UNKNOWN
 FORMAT:FORMATTED              ACCESS:SEQUENTIAL          

 OPENING lpf\k_vertical_l34.idf
 FILE TYPE:DATA(IDF)   UNIT  274   STATUS:UNKNOWN
 FORMAT:FORMATTED              ACCESS:SEQUENTIAL          

 OPENING lpf\k_horizontal_l35.idf
 FILE TYPE:DATA(IDF)   UNIT  275   STATUS:UNKNOWN
 FORMAT:FORMATTED              ACCESS:SEQUENTIAL          

 OPENING lpf\k_vertical_l35.idf
 FILE TYPE:DATA(IDF)   UNIT  276   STATUS:UNKNOWN
 FORMAT:FORMATTED              ACCESS:SEQUENTIAL          

 OPENING lpf\k_horizontal_l36.idf
 FILE TYPE:DATA(IDF)   UNIT  277   STATUS:UNKNOWN
 FORMAT:FORMATTED              ACCESS:SEQUENTIAL          

 OPENING lpf\k_vertical_l36.idf
 FILE TYPE:DATA(IDF)   UNIT  278   STATUS:UNKNOWN
 FORMAT:FORMATTED              ACCESS:SEQUENTIAL          

 OPENING lpf\k_horizontal_l37.idf
 FILE TYPE:DATA(IDF)   UNIT  279   STATUS:UNKNOWN
 FORMAT:FORMATTED              ACCESS:SEQUENTIAL          

 OPENING lpf\k_vertical_l37.idf
 FILE TYPE:DATA(IDF)   UNIT  280   STATUS:UNKNOWN
 FORMAT:FORMATTED              ACCESS:SEQUENTIAL          

 OPENING lpf\k_horizontal_l38.idf
 FILE TYPE:DATA(IDF)   UNIT  281   STATUS:UNKNOWN
 FORMAT:FORMATTED              ACCESS:SEQUENTIAL          

 OPENING lpf\k_vertical_l38.idf
 FILE TYPE:DATA(IDF)   UNIT  282   STATUS:UNKNOWN
 FORMAT:FORMATTED              ACCESS:SEQUENTIAL          

 OPENING lpf\k_horizontal_l39.idf
 FILE TYPE:DATA(IDF)   UNIT  283   STATUS:UNKNOWN
 FORMAT:FORMATTED              ACCESS:SEQUENTIAL          

 OPENING lpf\k_vertical_l39.idf
 FILE TYPE:DATA(IDF)   UNIT  284   STATUS:UNKNOWN
 FORMAT:FORMATTED              ACCESS:SEQUENTIAL          

 OPENING lpf\k_horizontal_l40.idf
 FILE TYPE:DATA(IDF)   UNIT  285   STATUS:UNKNOWN
 FORMAT:FORMATTED              ACCESS:SEQUENTIAL          

 OPENING lpf\k_vertical_l40.idf
 FILE TYPE:DATA(IDF)   UNIT  286   STATUS:UNKNOWN
 FORMAT:FORMATTED              ACCESS:SEQUENTIAL          

 OPENING lpf\k_horizontal_l41.idf
 FILE TYPE:DATA(IDF)   UNIT  287   STATUS:UNKNOWN
 FORMAT:FORMATTED              ACCESS:SEQUENTIAL          

 OPENING lpf\k_vertical_l41.idf
 FILE TYPE:DATA(IDF)   UNIT  288   STATUS:UNKNOWN
 FORMAT:FORMATTED              ACCESS:SEQUENTIAL          

 OPENING lpf\k_horizontal_l42.idf
 FILE TYPE:DATA(IDF)   UNIT  289   STATUS:UNKNOWN
 FORMAT:FORMATTED              ACCESS:SEQUENTIAL          

 OPENING lpf\k_vertical_l42.idf
 FILE TYPE:DATA(IDF)   UNIT  290   STATUS:UNKNOWN
 FORMAT:FORMATTED              ACCESS:SEQUENTIAL          

 OPENING lpf\k_horizontal_l43.idf
 FILE TYPE:DATA(IDF)   UNIT  291   STATUS:UNKNOWN
 FORMAT:FORMATTED              ACCESS:SEQUENTIAL          

 OPENING lpf\k_vertical_l43.idf
 FILE TYPE:DATA(IDF)   UNIT  292   STATUS:UNKNOWN
 FORMAT:FORMATTED              ACCESS:SEQUENTIAL          

 OPENING lpf\k_horizontal_l44.idf
 FILE TYPE:DATA(IDF)   UNIT  293   STATUS:UNKNOWN
 FORMAT:FORMATTED              ACCESS:SEQUENTIAL          

 OPENING lpf\k_vertical_l44.idf
 FILE TYPE:DATA(IDF)   UNIT  294   STATUS:UNKNOWN
 FORMAT:FORMATTED              ACCESS:SEQUENTIAL          

 OPENING lpf\k_horizontal_l45.idf
 FILE TYPE:DATA(IDF)   UNIT  295   STATUS:UNKNOWN
 FORMAT:FORMATTED              ACCESS:SEQUENTIAL          

 OPENING lpf\k_vertical_l45.idf
 FILE TYPE:DATA(IDF)   UNIT  296   STATUS:UNKNOWN
 FORMAT:FORMATTED              ACCESS:SEQUENTIAL          

 OPENING lpf\k_horizontal_l46.idf
 FILE TYPE:DATA(IDF)   UNIT  297   STATUS:UNKNOWN
 FORMAT:FORMATTED              ACCESS:SEQUENTIAL          

 OPENING lpf\k_vertical_l46.idf
 FILE TYPE:DATA(IDF)   UNIT  298   STATUS:UNKNOWN
 FORMAT:FORMATTED              ACCESS:SEQUENTIAL          

 OPENING lpf\k_horizontal_l47.idf
 FILE TYPE:DATA(IDF)   UNIT  299   STATUS:UNKNOWN
 FORMAT:FORMATTED              ACCESS:SEQUENTIAL          

 OPENING lpf\k_vertical_l47.idf
 FILE TYPE:DATA(IDF)   UNIT  301   STATUS:UNKNOWN
 FORMAT:FORMATTED              ACCESS:SEQUENTIAL          

 OPENING lpf\k_horizontal_l48.idf
 FILE TYPE:DATA(IDF)   UNIT  302   STATUS:UNKNOWN
 FORMAT:FORMATTED              ACCESS:SEQUENTIAL          

 OPENING lpf\k_vertical_l48.idf
 FILE TYPE:DATA(IDF)   UNIT  303   STATUS:UNKNOWN
 FORMAT:FORMATTED              ACCESS:SEQUENTIAL          

 OPENING lpf\k_horizontal_l49.idf
 FILE TYPE:DATA(IDF)   UNIT  304   STATUS:UNKNOWN
 FORMAT:FORMATTED              ACCESS:SEQUENTIAL          

 OPENING lpf\k_vertical_l49.idf
 FILE TYPE:DATA(IDF)   UNIT  305   STATUS:UNKNOWN
 FORMAT:FORMATTED              ACCESS:SEQUENTIAL          

 OPENING lpf\k_horizontal_l50.idf
 FILE TYPE:DATA(IDF)   UNIT  306   STATUS:UNKNOWN
 FORMAT:FORMATTED              ACCESS:SEQUENTIAL          

 OPENING lpf\k_vertical_l50.idf
 FILE TYPE:DATA(IDF)   UNIT  307   STATUS:UNKNOWN
 FORMAT:FORMATTED              ACCESS:SEQUENTIAL          

 OPENING wel\rate.ipf
 FILE TYPE:DATA(IPF)   UNIT  308   STATUS:UNKNOWN
 FORMAT:FORMATTED              ACCESS:SEQUENTIAL          

 THE FREE FORMAT OPTION HAS BEEN SELECTED

 DISCRETIZATION INPUT DATA READ FROM UNIT   15
   50 LAYERS         1 ROWS       100 COLUMNS
    9 STRESS PERIOD(S) IN SIMULATION
 MODEL TIME UNIT IS DAYS
 MODEL LENGTH UNIT IS METERS
  ----- 
 | M T | Model: henry                                                                    
 | 3 D |                                                                                 
  ----- 
 THE TRANSPORT MODEL CONSISTS OF    50 LAYER(S)    1 ROW(S)  100 COLUMN(S)
 NUMBER OF STRESS PERIOD(S) FOR TRANSPORT SIMULATION =    9
 NUMBER OF ALL COMPONENTS INCLUDED IN SIMULATION =    1
 NUMBER OF MOBILE COMPONENTS INCLUDED IN SIMULATION =    1
 UNIT FOR TIME IS    D;  UNIT FOR LENGTH IS    M;  UNIT FOR MASS IS    K
 OPTIONAL PACKAGES INCLUDED IN CURRENT SIMULATION:
  o ADV   ON UNIT 29
  o DSP   ON UNIT 31
  o SSM   ON UNIT 35
  o GCG   ON UNIT 33
  o MET   ON UNIT 39


 VDF -- VARIABLE DENSITY FLOW, VERSION 1, 2/13/2004
         INPUT READ FROM UNIT 26

 COUPLING BETWEEN FLOW AND TRANSPORT IS EXPLICIT
 VARIABLE-DENSITY WATER-TABLE CORRECTIONS NOT ADDED
 MT3DMS SPECIES USED IN EQUATION OF STATE FOR FLUID DENSITY:          1
 A CENTRAL-IN-SPACE-WEIGHTED ALGORITHM IS USED TO CALCUTE FLUID DENSITY TERMS THAT CONSERVE MASS
  1000.     REFERENCE DENSITY
 0.7100     DENSITY SLOPE FOR EQUATION OF STATE
 DENSITY EQUATION OF STATE
 RHO =     1000.00    
  + 0.7100     * ( CONC(   1) -  0.000     )



 FIRSTDT SPECIFIED BY USER IN THE VDF FILE IS:   0.1000000E-02
 THE GROUND-WATER TRANSPORT PROCESS IS INACTIVE

 THE OBSERVATION PROCESS IS INACTIVE
 THE SENSITIVITY PROCESS IS INACTIVE
 THE PARAMETER-ESTIMATION PROCESS IS INACTIVE

 MODE: FORWARD

  Confining bed flag for each layer:
   0   0   0   0   0   0   0   0   0   0   0   0   0   0   0   0   0   0   0   0
   0   0   0   0   0   0   0   0   0   0   0   0   0   0   0   0   0   0   0   0
   0   0   0   0   0   0   0   0   0   0

      45101  ELEMENTS OF GX ARRAY USED OUT OF      45101
       5000  ELEMENTS OF GZ ARRAY USED OUT OF       5000
       5000  ELEMENTS OF IG ARRAY USED OUT OF       5000



                               DELR
 READING ON UNIT   15 WITH FORMAT: (FREE)              
   1.0000       1.0000       1.0000       1.0000       1.0000       1.0000       1.0000       1.0000       1.0000       1.0000    
   1.0000       1.0000       1.0000       1.0000       1.0000       1.0000       1.0000       1.0000       1.0000       1.0000    
   1.0000       1.0000       1.0000       1.0000       1.0000       1.0000       1.0000       1.0000       1.0000       1.0000    
   1.0000       1.0000       1.0000       1.0000       1.0000       1.0000       1.0000       1.0000       1.0000       1.0000    
   1.0000       1.0000       1.0000       1.0000       1.0000       1.0000       1.0000       1.0000       1.0000       1.0000    
   1.0000       1.0000       1.0000       1.0000       1.0000       1.0000       1.0000       1.0000       1.0000       1.0000    
   1.0000       1.0000       1.0000       1.0000       1.0000       1.0000       1.0000       1.0000       1.0000       1.0000    
   1.0000       1.0000       1.0000       1.0000       1.0000       1.0000       1.0000       1.0000       1.0000       1.0000    
   1.0000       1.0000       1.0000       1.0000       1.0000       1.0000       1.0000       1.0000       1.0000       1.0000    
   1.0000       1.0000       1.0000       1.0000       1.0000       1.0000       1.0000       1.0000       1.0000       1.0000    



                               DELC
 READING ON UNIT   15 WITH FORMAT: (FREE)              
   1.0000    

 TOP ELEVATION OF LAYER 1 =   50.0000    

   MODEL LAYER BOTTOM EL. =   49.0000     FOR LAYER   1

   MODEL LAYER BOTTOM EL. =   48.0000     FOR LAYER   2

   MODEL LAYER BOTTOM EL. =   47.0000     FOR LAYER   3

   MODEL LAYER BOTTOM EL. =   46.0000     FOR LAYER   4

   MODEL LAYER BOTTOM EL. =   45.0000     FOR LAYER   5

   MODEL LAYER BOTTOM EL. =   44.0000     FOR LAYER   6

   MODEL LAYER BOTTOM EL. =   43.0000     FOR LAYER   7

   MODEL LAYER BOTTOM EL. =   42.0000     FOR LAYER   8

   MODEL LAYER BOTTOM EL. =   41.0000     FOR LAYER   9

   MODEL LAYER BOTTOM EL. =   40.0000     FOR LAYER  10

   MODEL LAYER BOTTOM EL. =   39.0000     FOR LAYER  11

   MODEL LAYER BOTTOM EL. =   38.0000     FOR LAYER  12

   MODEL LAYER BOTTOM EL. =   37.0000     FOR LAYER  13

   MODEL LAYER BOTTOM EL. =   36.0000     FOR LAYER  14

   MODEL LAYER BOTTOM EL. =   35.0000     FOR LAYER  15

   MODEL LAYER BOTTOM EL. =   34.0000     FOR LAYER  16

   MODEL LAYER BOTTOM EL. =   33.0000     FOR LAYER  17

   MODEL LAYER BOTTOM EL. =   32.0000     FOR LAYER  18

   MODEL LAYER BOTTOM EL. =   31.0000     FOR LAYER  19

   MODEL LAYER BOTTOM EL. =   30.0000     FOR LAYER  20

   MODEL LAYER BOTTOM EL. =   29.0000     FOR LAYER  21

   MODEL LAYER BOTTOM EL. =   28.0000     FOR LAYER  22

   MODEL LAYER BOTTOM EL. =   27.0000     FOR LAYER  23

   MODEL LAYER BOTTOM EL. =   26.0000     FOR LAYER  24

   MODEL LAYER BOTTOM EL. =   25.0000     FOR LAYER  25

   MODEL LAYER BOTTOM EL. =   24.0000     FOR LAYER  26

   MODEL LAYER BOTTOM EL. =   23.0000     FOR LAYER  27

   MODEL LAYER BOTTOM EL. =   22.0000     FOR LAYER  28

   MODEL LAYER BOTTOM EL. =   21.0000     FOR LAYER  29

   MODEL LAYER BOTTOM EL. =   20.0000     FOR LAYER  30

   MODEL LAYER BOTTOM EL. =   19.0000     FOR LAYER  31

   MODEL LAYER BOTTOM EL. =   18.0000     FOR LAYER  32

   MODEL LAYER BOTTOM EL. =   17.0000     FOR LAYER  33

   MODEL LAYER BOTTOM EL. =   16.0000     FOR LAYER  34

   MODEL LAYER BOTTOM EL. =   15.0000     FOR LAYER  35

   MODEL LAYER BOTTOM EL. =   14.0000     FOR LAYER  36

   MODEL LAYER BOTTOM EL. =   13.0000     FOR LAYER  37

   MODEL LAYER BOTTOM EL. =   12.0000     FOR LAYER  38

   MODEL LAYER BOTTOM EL. =   11.0000     FOR LAYER  39

   MODEL LAYER BOTTOM EL. =   10.0000     FOR LAYER  40

   MODEL LAYER BOTTOM EL. =   9.00000     FOR LAYER  41

   MODEL LAYER BOTTOM EL. =   8.00000     FOR LAYER  42

   MODEL LAYER BOTTOM EL. =   7.00000     FOR LAYER  43

   MODEL LAYER BOTTOM EL. =   6.00000     FOR LAYER  44

   MODEL LAYER BOTTOM EL. =   5.00000     FOR LAYER  45

   MODEL LAYER BOTTOM EL. =   4.00000     FOR LAYER  46

   MODEL LAYER BOTTOM EL. =   3.00000     FOR LAYER  47

   MODEL LAYER BOTTOM EL. =   2.00000     FOR LAYER  48

   MODEL LAYER BOTTOM EL. =   1.00000     FOR LAYER  49

   MODEL LAYER BOTTOM EL. =   0.00000     FOR LAYER  50


 STRESS PERIOD     LENGTH       TIME STEPS     MULTIPLIER FOR DELT    SS FLAG
 ----------------------------------------------------------------------------
        1         365.0000          1                    1.000         TR
        2         365.0000          1                    1.000         TR
        3         365.0000          1                    1.000         TR
        4         366.0000          1                    1.000         TR
        5         365.0000          1                    1.000         TR
        6         365.0000          1                    1.000         TR
        7         365.0000          1                    1.000         TR
        8         366.0000          1                    1.000         TR
        9         365.0000          1                    1.000         TR

 TRANSIENT SIMULATION




 LPF1 -- LAYER PROPERTY FLOW PACKAGE, VERSION 1, 1/11/2000
         INPUT READ FROM UNIT   20
 HEAD AT CELLS THAT CONVERT TO DRY=  1.00000E+20
 No named parameters

   LAYER FLAGS:
 LAYER       LAYTYP        LAYAVG         CHANI        LAYVKA        LAYWET
 ---------------------------------------------------------------------------
    1             0             0     1.000E+00             0             0
    2             0             0     1.000E+00             0             0
    3             0             0     1.000E+00             0             0
    4             0             0     1.000E+00             0             0
    5             0             0     1.000E+00             0             0
    6             0             0     1.000E+00             0             0
    7             0             0     1.000E+00             0             0
    8             0             0     1.000E+00             0             0
    9             0             0     1.000E+00             0             0
   10             0             0     1.000E+00             0             0
   11             0             0     1.000E+00             0             0
   12             0             0     1.000E+00             0             0
   13             0             0     1.000E+00             0             0
   14             0             0     1.000E+00             0             0
   15             0             0     1.000E+00             0             0
   16             0             0     1.000E+00             0             0
   17             0             0     1.000E+00             0             0
   18             0             0     1.000E+00             0             0
   19             0             0     1.000E+00             0             0
   20             0             0     1.000E+00             0             0
   21             0             0     1.000E+00             0             0
   22             0             0     1.000E+00             0             0
   23             0             0     1.000E+00             0             0
   24             0             0     1.000E+00             0             0
   25             0             0     1.000E+00             0             0
   26             0             0     1.000E+00             0             0
   27             0             0     1.000E+00             0             0
   28             0             0     1.000E+00             0             0
   29             0             0     1.000E+00             0             0
   30             0             0     1.000E+00             0             0
   31             0             0     1.000E+00             0             0
   32             0             0     1.000E+00             0             0
   33             0             0     1.000E+00             0             0
   34             0             0     1.000E+00             0             0
   35             0             0     1.000E+00             0             0
   36             0             0     1.000E+00             0             0
   37             0             0     1.000E+00             0             0
   38             0             0     1.000E+00             0             0
   39             0             0     1.000E+00             0             0
   40             0             0     1.000E+00             0             0
   41             0             0     1.000E+00             0             0
   42             0             0     1.000E+00             0             0
   43             0             0     1.000E+00             0             0
   44             0             0     1.000E+00             0             0
   45             0             0     1.000E+00             0             0
   46             0             0     1.000E+00             0             0
   47             0             0     1.000E+00             0             0
   48             0             0     1.000E+00             0             0
   49             0             0     1.000E+00             0             0
   50             0             0     1.000E+00             0             0

   INTERPRETATION OF LAYER FLAGS:
                        INTERBLOCK     HORIZONTAL    DATA IN
         LAYER TYPE   TRANSMISSIVITY   ANISOTROPY   ARRAY VKA   WETTABILITY
 LAYER      (LAYTYP)      (LAYAVG)       (CHANI)      (LAYVKA)      (LAYWET)
 ---------------------------------------------------------------------------
    1      CONFINED      HARMONIC     1.000E+00    VERTICAL K  NON-WETTABLE
    2      CONFINED      HARMONIC     1.000E+00    VERTICAL K  NON-WETTABLE
    3      CONFINED      HARMONIC     1.000E+00    VERTICAL K  NON-WETTABLE
    4      CONFINED      HARMONIC     1.000E+00    VERTICAL K  NON-WETTABLE
    5      CONFINED      HARMONIC     1.000E+00    VERTICAL K  NON-WETTABLE
    6      CONFINED      HARMONIC     1.000E+00    VERTICAL K  NON-WETTABLE
    7      CONFINED      HARMONIC     1.000E+00    VERTICAL K  NON-WETTABLE
    8      CONFINED      HARMONIC     1.000E+00    VERTICAL K  NON-WETTABLE
    9      CONFINED      HARMONIC     1.000E+00    VERTICAL K  NON-WETTABLE
   10      CONFINED      HARMONIC     1.000E+00    VERTICAL K  NON-WETTABLE
   11      CONFINED      HARMONIC     1.000E+00    VERTICAL K  NON-WETTABLE
   12      CONFINED      HARMONIC     1.000E+00    VERTICAL K  NON-WETTABLE
   13      CONFINED      HARMONIC     1.000E+00    VERTICAL K  NON-WETTABLE
   14      CONFINED      HARMONIC     1.000E+00    VERTICAL K  NON-WETTABLE
   15      CONFINED      HARMONIC     1.000E+00    VERTICAL K  NON-WETTABLE
   16      CONFINED      HARMONIC     1.000E+00    VERTICAL K  NON-WETTABLE
   17      CONFINED      HARMONIC     1.000E+00    VERTICAL K  NON-WETTABLE
   18      CONFINED      HARMONIC     1.000E+00    VERTICAL K  NON-WETTABLE
   19      CONFINED      HARMONIC     1.000E+00    VERTICAL K  NON-WETTABLE
   20      CONFINED      HARMONIC     1.000E+00    VERTICAL K  NON-WETTABLE
   21      CONFINED      HARMONIC     1.000E+00    VERTICAL K  NON-WETTABLE
   22      CONFINED      HARMONIC     1.000E+00    VERTICAL K  NON-WETTABLE
   23      CONFINED      HARMONIC     1.000E+00    VERTICAL K  NON-WETTABLE
   24      CONFINED      HARMONIC     1.000E+00    VERTICAL K  NON-WETTABLE
   25      CONFINED      HARMONIC     1.000E+00    VERTICAL K  NON-WETTABLE
   26      CONFINED      HARMONIC     1.000E+00    VERTICAL K  NON-WETTABLE
   27      CONFINED      HARMONIC     1.000E+00    VERTICAL K  NON-WETTABLE
   28      CONFINED      HARMONIC     1.000E+00    VERTICAL K  NON-WETTABLE
   29      CONFINED      HARMONIC     1.000E+00    VERTICAL K  NON-WETTABLE
   30      CONFINED      HARMONIC     1.000E+00    VERTICAL K  NON-WETTABLE
   31      CONFINED      HARMONIC     1.000E+00    VERTICAL K  NON-WETTABLE
   32      CONFINED      HARMONIC     1.000E+00    VERTICAL K  NON-WETTABLE
   33      CONFINED      HARMONIC     1.000E+00    VERTICAL K  NON-WETTABLE
   34      CONFINED      HARMONIC     1.000E+00    VERTICAL K  NON-WETTABLE
   35      CONFINED      HARMONIC     1.000E+00    VERTICAL K  NON-WETTABLE
   36      CONFINED      HARMONIC     1.000E+00    VERTICAL K  NON-WETTABLE
   37      CONFINED      HARMONIC     1.000E+00    VERTICAL K  NON-WETTABLE
   38      CONFINED      HARMONIC     1.000E+00    VERTICAL K  NON-WETTABLE
   39      CONFINED      HARMONIC     1.000E+00    VERTICAL K  NON-WETTABLE
   40      CONFINED      HARMONIC     1.000E+00    VERTICAL K  NON-WETTABLE
   41      CONFINED      HARMONIC     1.000E+00    VERTICAL K  NON-WETTABLE
   42      CONFINED      HARMONIC     1.000E+00    VERTICAL K  NON-WETTABLE
   43      CONFINED      HARMONIC     1.000E+00    VERTICAL K  NON-WETTABLE
   44      CONFINED      HARMONIC     1.000E+00    VERTICAL K  NON-WETTABLE
   45      CONFINED      HARMONIC     1.000E+00    VERTICAL K  NON-WETTABLE
   46      CONFINED      HARMONIC     1.000E+00    VERTICAL K  NON-WETTABLE
   47      CONFINED      HARMONIC     1.000E+00    VERTICAL K  NON-WETTABLE
   48      CONFINED      HARMONIC     1.000E+00    VERTICAL K  NON-WETTABLE
   49      CONFINED      HARMONIC     1.000E+00    VERTICAL K  NON-WETTABLE
   50      CONFINED      HARMONIC     1.000E+00    VERTICAL K  NON-WETTABLE

      15000 ELEMENTS IN X ARRAY ARE USED BY LPF
        300 ELEMENTS IN IX ARRAY ARE USED BY LPF

 PCG2 -- CONJUGATE GRADIENT SOLUTION PACKAGE, VERSION 2.4, 12/29/98
 MAXIMUM OF    150 CALLS OF SOLUTION ROUTINE
 MAXIMUM OF     30 INTERNAL ITERATIONS PER CALL TO SOLUTION ROUTINE
 MATRIX PRECONDITIONING TYPE :    1
      19000 ELEMENTS IN X ARRAY ARE USED BY PCG
      31500 ELEMENTS IN IX ARRAY ARE USED BY PCG
      20000 ELEMENTS IN Z ARRAY ARE USED BY PCG

      34000  ELEMENTS OF X ARRAY USED OUT OF      34000
      20000  ELEMENTS OF Z ARRAY USED OUT OF      20000
      31800  ELEMENTS OF IX ARRAY USED OUT OF      31800
          0  ELEMENTS OF XHS ARRAY USED OUT OF          1



                                    SOLUTION BY THE CONJUGATE-GRADIENT METHOD
                                   -------------------------------------------
                    MAXIMUM NUMBER OF CALLS TO PCG ROUTINE =      150
                        MAXIMUM ITERATIONS PER CALL TO PCG =       30
                               MATRIX PRECONDITIONING TYPE =        1
        RELAXATION FACTOR (ONLY USED WITH PRECOND. TYPE 1) =    0.98000E+00
 PARAMETER OF POLYNOMIAL PRECOND. = 2 (2) OR IS CALCULATED :        2
                         HEAD CHANGE CRITERION FOR CLOSURE =    0.10000E-05
                     RESIDUAL CHANGE CRITERION FOR CLOSURE =    0.10000E+01
            PCG HEAD AND RESIDUAL CHANGE PRINTOUT INTERVAL =        1
     PRINTING FROM SOLVER IS LIMITED(1) OR SUPPRESSED (>1) =        0
                                         DAMPING PARAMETER =    0.10000E+01

 WETTING CAPABILITY IS NOT ACTIVE IN ANY LAYER



              HYD. COND. ALONG ROWS FOR LAYER   1
 READING BINARY ON UNIT  207



                VERTICAL HYD. COND. FOR LAYER   1
 READING BINARY ON UNIT  208

         SPECIFIC STORAGE =   1.00000     FOR LAYER   1



              HYD. COND. ALONG ROWS FOR LAYER   2
 READING BINARY ON UNIT  209



                VERTICAL HYD. COND. FOR LAYER   2
 READING BINARY ON UNIT  210

         SPECIFIC STORAGE =   1.00000     FOR LAYER   2



              HYD. COND. ALONG ROWS FOR LAYER   3
 READING BINARY ON UNIT  211



                VERTICAL HYD. COND. FOR LAYER   3
 READING BINARY ON UNIT  212

         SPECIFIC STORAGE =   1.00000     FOR LAYER   3



              HYD. COND. ALONG ROWS FOR LAYER   4
 READING BINARY ON UNIT  213



                VERTICAL HYD. COND. FOR LAYER   4
 READING BINARY ON UNIT  214

         SPECIFIC STORAGE =   1.00000     FOR LAYER   4



              HYD. COND. ALONG ROWS FOR LAYER   5
 READING BINARY ON UNIT  215



                VERTICAL HYD. COND. FOR LAYER   5
 READING BINARY ON UNIT  216

         SPECIFIC STORAGE =   1.00000     FOR LAYER   5



              HYD. COND. ALONG ROWS FOR LAYER   6
 READING BINARY ON UNIT  217



                VERTICAL HYD. COND. FOR LAYER   6
 READING BINARY ON UNIT  218

         SPECIFIC STORAGE =   1.00000     FOR LAYER   6



              HYD. COND. ALONG ROWS FOR LAYER   7
 READING BINARY ON UNIT  219



                VERTICAL HYD. COND. FOR LAYER   7
 READING BINARY ON UNIT  220

         SPECIFIC STORAGE =   1.00000     FOR LAYER   7



              HYD. COND. ALONG ROWS FOR LAYER   8
 READING BINARY ON UNIT  221



                VERTICAL HYD. COND. FOR LAYER   8
 READING BINARY ON UNIT  222

         SPECIFIC STORAGE =   1.00000     FOR LAYER   8



              HYD. COND. ALONG ROWS FOR LAYER   9
 READING BINARY ON UNIT  223



                VERTICAL HYD. COND. FOR LAYER   9
 READING BINARY ON UNIT  224

         SPECIFIC STORAGE =   1.00000     FOR LAYER   9



              HYD. COND. ALONG ROWS FOR LAYER  10
 READING BINARY ON UNIT  225



                VERTICAL HYD. COND. FOR LAYER  10
 READING BINARY ON UNIT  226

         SPECIFIC STORAGE =   1.00000     FOR LAYER  10



              HYD. COND. ALONG ROWS FOR LAYER  11
 READING BINARY ON UNIT  227



                VERTICAL HYD. COND. FOR LAYER  11
 READING BINARY ON UNIT  228

         SPECIFIC STORAGE =   1.00000     FOR LAYER  11



              HYD. COND. ALONG ROWS FOR LAYER  12
 READING BINARY ON UNIT  229



                VERTICAL HYD. COND. FOR LAYER  12
 READING BINARY ON UNIT  230

         SPECIFIC STORAGE =   1.00000     FOR LAYER  12



              HYD. COND. ALONG ROWS FOR LAYER  13
 READING BINARY ON UNIT  231



                VERTICAL HYD. COND. FOR LAYER  13
 READING BINARY ON UNIT  232

         SPECIFIC STORAGE =   1.00000     FOR LAYER  13



              HYD. COND. ALONG ROWS FOR LAYER  14
 READING BINARY ON UNIT  233



                VERTICAL HYD. COND. FOR LAYER  14
 READING BINARY ON UNIT  234

         SPECIFIC STORAGE =   1.00000     FOR LAYER  14



              HYD. COND. ALONG ROWS FOR LAYER  15
 READING BINARY ON UNIT  235



                VERTICAL HYD. COND. FOR LAYER  15
 READING BINARY ON UNIT  236

         SPECIFIC STORAGE =   1.00000     FOR LAYER  15



              HYD. COND. ALONG ROWS FOR LAYER  16
 READING BINARY ON UNIT  237



                VERTICAL HYD. COND. FOR LAYER  16
 READING BINARY ON UNIT  238

         SPECIFIC STORAGE =   1.00000     FOR LAYER  16



              HYD. COND. ALONG ROWS FOR LAYER  17
 READING BINARY ON UNIT  239



                VERTICAL HYD. COND. FOR LAYER  17
 READING BINARY ON UNIT  240

         SPECIFIC STORAGE =   1.00000     FOR LAYER  17



              HYD. COND. ALONG ROWS FOR LAYER  18
 READING BINARY ON UNIT  241



                VERTICAL HYD. COND. FOR LAYER  18
 READING BINARY ON UNIT  242

         SPECIFIC STORAGE =   1.00000     FOR LAYER  18



              HYD. COND. ALONG ROWS FOR LAYER  19
 READING BINARY ON UNIT  243



                VERTICAL HYD. COND. FOR LAYER  19
 READING BINARY ON UNIT  244

         SPECIFIC STORAGE =   1.00000     FOR LAYER  19



              HYD. COND. ALONG ROWS FOR LAYER  20
 READING BINARY ON UNIT  245



                VERTICAL HYD. COND. FOR LAYER  20
 READING BINARY ON UNIT  246

         SPECIFIC STORAGE =   1.00000     FOR LAYER  20



              HYD. COND. ALONG ROWS FOR LAYER  21
 READING BINARY ON UNIT  247



                VERTICAL HYD. COND. FOR LAYER  21
 READING BINARY ON UNIT  248

         SPECIFIC STORAGE =   1.00000     FOR LAYER  21



              HYD. COND. ALONG ROWS FOR LAYER  22
 READING BINARY ON UNIT  249



                VERTICAL HYD. COND. FOR LAYER  22
 READING BINARY ON UNIT  250

         SPECIFIC STORAGE =   1.00000     FOR LAYER  22



              HYD. COND. ALONG ROWS FOR LAYER  23
 READING BINARY ON UNIT  251



                VERTICAL HYD. COND. FOR LAYER  23
 READING BINARY ON UNIT  252

         SPECIFIC STORAGE =   1.00000     FOR LAYER  23



              HYD. COND. ALONG ROWS FOR LAYER  24
 READING BINARY ON UNIT  253



                VERTICAL HYD. COND. FOR LAYER  24
 READING BINARY ON UNIT  254

         SPECIFIC STORAGE =   1.00000     FOR LAYER  24



              HYD. COND. ALONG ROWS FOR LAYER  25
 READING BINARY ON UNIT  255



                VERTICAL HYD. COND. FOR LAYER  25
 READING BINARY ON UNIT  256

         SPECIFIC STORAGE =   1.00000     FOR LAYER  25



              HYD. COND. ALONG ROWS FOR LAYER  26
 READING BINARY ON UNIT  257



                VERTICAL HYD. COND. FOR LAYER  26
 READING BINARY ON UNIT  258

         SPECIFIC STORAGE =   1.00000     FOR LAYER  26



              HYD. COND. ALONG ROWS FOR LAYER  27
 READING BINARY ON UNIT  259



                VERTICAL HYD. COND. FOR LAYER  27
 READING BINARY ON UNIT  260

         SPECIFIC STORAGE =   1.00000     FOR LAYER  27



              HYD. COND. ALONG ROWS FOR LAYER  28
 READING BINARY ON UNIT  261



                VERTICAL HYD. COND. FOR LAYER  28
 READING BINARY ON UNIT  262

         SPECIFIC STORAGE =   1.00000     FOR LAYER  28



              HYD. COND. ALONG ROWS FOR LAYER  29
 READING BINARY ON UNIT  263



                VERTICAL HYD. COND. FOR LAYER  29
 READING BINARY ON UNIT  264

         SPECIFIC STORAGE =   1.00000     FOR LAYER  29



              HYD. COND. ALONG ROWS FOR LAYER  30
 READING BINARY ON UNIT  265



                VERTICAL HYD. COND. FOR LAYER  30
 READING BINARY ON UNIT  266

         SPECIFIC STORAGE =   1.00000     FOR LAYER  30



              HYD. COND. ALONG ROWS FOR LAYER  31
 READING BINARY ON UNIT  267



                VERTICAL HYD. COND. FOR LAYER  31
 READING BINARY ON UNIT  268

         SPECIFIC STORAGE =   1.00000     FOR LAYER  31



              HYD. COND. ALONG ROWS FOR LAYER  32
 READING BINARY ON UNIT  269



                VERTICAL HYD. COND. FOR LAYER  32
 READING BINARY ON UNIT  270

         SPECIFIC STORAGE =   1.00000     FOR LAYER  32



              HYD. COND. ALONG ROWS FOR LAYER  33
 READING BINARY ON UNIT  271



                VERTICAL HYD. COND. FOR LAYER  33
 READING BINARY ON UNIT  272

         SPECIFIC STORAGE =   1.00000     FOR LAYER  33



              HYD. COND. ALONG ROWS FOR LAYER  34
 READING BINARY ON UNIT  273



                VERTICAL HYD. COND. FOR LAYER  34
 READING BINARY ON UNIT  274

         SPECIFIC STORAGE =   1.00000     FOR LAYER  34



              HYD. COND. ALONG ROWS FOR LAYER  35
 READING BINARY ON UNIT  275



                VERTICAL HYD. COND. FOR LAYER  35
 READING BINARY ON UNIT  276

         SPECIFIC STORAGE =   1.00000     FOR LAYER  35



              HYD. COND. ALONG ROWS FOR LAYER  36
 READING BINARY ON UNIT  277



                VERTICAL HYD. COND. FOR LAYER  36
 READING BINARY ON UNIT  278

         SPECIFIC STORAGE =   1.00000     FOR LAYER  36



              HYD. COND. ALONG ROWS FOR LAYER  37
 READING BINARY ON UNIT  279



                VERTICAL HYD. COND. FOR LAYER  37
 READING BINARY ON UNIT  280

         SPECIFIC STORAGE =   1.00000     FOR LAYER  37



              HYD. COND. ALONG ROWS FOR LAYER  38
 READING BINARY ON UNIT  281



                VERTICAL HYD. COND. FOR LAYER  38
 READING BINARY ON UNIT  282

         SPECIFIC STORAGE =   1.00000     FOR LAYER  38



              HYD. COND. ALONG ROWS FOR LAYER  39
 READING BINARY ON UNIT  283



                VERTICAL HYD. COND. FOR LAYER  39
 READING BINARY ON UNIT  284

         SPECIFIC STORAGE =   1.00000     FOR LAYER  39



              HYD. COND. ALONG ROWS FOR LAYER  40
 READING BINARY ON UNIT  285



                VERTICAL HYD. COND. FOR LAYER  40
 READING BINARY ON UNIT  286

         SPECIFIC STORAGE =   1.00000     FOR LAYER  40



              HYD. COND. ALONG ROWS FOR LAYER  41
 READING BINARY ON UNIT  287



                VERTICAL HYD. COND. FOR LAYER  41
 READING BINARY ON UNIT  288

         SPECIFIC STORAGE =   1.00000     FOR LAYER  41



              HYD. COND. ALONG ROWS FOR LAYER  42
 READING BINARY ON UNIT  289



                VERTICAL HYD. COND. FOR LAYER  42
 READING BINARY ON UNIT  290

         SPECIFIC STORAGE =   1.00000     FOR LAYER  42



              HYD. COND. ALONG ROWS FOR LAYER  43
 READING BINARY ON UNIT  291



                VERTICAL HYD. COND. FOR LAYER  43
 READING BINARY ON UNIT  292

         SPECIFIC STORAGE =   1.00000     FOR LAYER  43



              HYD. COND. ALONG ROWS FOR LAYER  44
 READING BINARY ON UNIT  293



                VERTICAL HYD. COND. FOR LAYER  44
 READING BINARY ON UNIT  294

         SPECIFIC STORAGE =   1.00000     FOR LAYER  44



              HYD. COND. ALONG ROWS FOR LAYER  45
 READING BINARY ON UNIT  295



                VERTICAL HYD. COND. FOR LAYER  45
 READING BINARY ON UNIT  296

         SPECIFIC STORAGE =   1.00000     FOR LAYER  45



              HYD. COND. ALONG ROWS FOR LAYER  46
 READING BINARY ON UNIT  297



                VERTICAL HYD. COND. FOR LAYER  46
 READING BINARY ON UNIT  298

         SPECIFIC STORAGE =   1.00000     FOR LAYER  46



              HYD. COND. ALONG ROWS FOR LAYER  47
 READING BINARY ON UNIT  299



                VERTICAL HYD. COND. FOR LAYER  47
 READING BINARY ON UNIT  301

         SPECIFIC STORAGE =   1.00000     FOR LAYER  47



              HYD. COND. ALONG ROWS FOR LAYER  48
 READING BINARY ON UNIT  302



                VERTICAL HYD. COND. FOR LAYER  48
 READING BINARY ON UNIT  303

         SPECIFIC STORAGE =   1.00000     FOR LAYER  48



              HYD. COND. ALONG ROWS FOR LAYER  49
 READING BINARY ON UNIT  304



                VERTICAL HYD. COND. FOR LAYER  49
 READING BINARY ON UNIT  305

         SPECIFIC STORAGE =   1.00000     FOR LAYER  49



              HYD. COND. ALONG ROWS FOR LAYER  50
 READING BINARY ON UNIT  306



                VERTICAL HYD. COND. FOR LAYER  50
 READING BINARY ON UNIT  307

         SPECIFIC STORAGE =   1.00000     FOR LAYER  50
 BTN5 -- BASIC TRANSPORT PACKAGE, VERSION 5, OCTOBER 2006, INPUT READ FROM UNIT 30
      75302 ELEMENTS OF THE  X ARRAY USED BY THE BTN PACKAGE
       5050 ELEMENTS OF THE IX ARRAY USED BY THE BTN PACKAGE

 FLOW MODEL IS TRANSIENT

 ADV5 -- ADVECTION PACKAGE, VERSION 5, FEBRUARY 2005, INPUT READ FROM UNIT 29
 ADVECTION IS SOLVED WITH THE ULTIMATE SCHEME
 COURANT NUMBER ALLOWED IN SOLVING THE ADVECTION TERM =  1.00    
          0 ELEMENTS OF THE  X ARRAY USED BY THE ADV PACKAGE
          0 ELEMENTS OF THE IX ARRAY USED BY THE ADV PACKAGE

 DSP5 -- DISPERSION PACKAGE, VERSION 5, OCTOBER 2006, INPUT READ FROM UNIT 31
      55100 ELEMENTS OF THE  X ARRAY USED BY THE DSP PACKAGE
          0 ELEMENTS OF THE IX ARRAY USED BY THE DSP PACKAGE

 SSM5 -- SINK & SOURCE MIXING PACKAGE, VERSION 5, OCTOBER 2006, INPUT READ FROM UNIT 35
 HEADER LINE OF THE SSM PACKAGE INPUT FILE:
  F F F F F F F F F F                                                                                                                                                                                    
 MAJOR STRESS COMPONENTS PRESENT IN THE FLOW MODEL:
  o WELL [WEL]
 MAXIMUM NUMBER OF POINT SINKS/SOURCES =     100
       2000 ELEMENTS OF THE  X ARRAY USED BY THE SSM PACKAGE
          0 ELEMENTS OF THE IX ARRAY BY THE SSM PACKAGE

 GCG5 -- GENERALIZED CONJUGATE GRADIENT SOLVER PACKAGE, VERSION 5, FEBRUARY 2005 INPUT READ FROM UNIT 33
 MAXIMUM OF  150 OUTER ITERATIONS
        AND   30 INNER ITERATIONS ALLOWED FOR CLOSURE
 THE PRECONDITIONING TYPE SELECTED IS MODIFIED INCOMPLETE CHOLESKY (MIC).
 DISPERSION CROSS TERMS LUMPED INTO RIGHT-HAND-SIDE
     114500 ELEMENTS OF THE  X ARRAY USED BY THE GCG PACKAGE
      13500 ELEMENTS OF THE IX ARRAY USED BY THE GCG PACKAGE

 
 THE FREE FORMAT OPTION HAS BEEN SELECTED
   50 LAYERS         1 ROWS       100 COLUMNS
    9 STRESS PERIOD(S) IN SIMULATION

 BAS6 -- BASIC PACKAGE, VERSION 6, 1/11/2000 INPUT READ FROM UNIT   11
        750 ELEMENTS IN IR ARRAY ARE USED BY BAS

 WEL6 -- WELL PACKAGE, VERSION 6, 1/11/2000 INPUT READ FROM UNIT   27
 No named parameters
 MAXIMUM OF      50 ACTIVE WELLS AT ONE TIME
 AUXILIARY WELL VARIABLE: NOPRINT         
        250 ELEMENTS IN RX ARRAY ARE USED BY WEL

        250  ELEMENTS OF RX ARRAY USED OUT OF        250
          0  ELEMENTS OF RZ ARRAY USED OUT OF          1
        750  ELEMENTS OF IR ARRAY USED OUT OF        750
1
                                                                                 
                                                                                 



                     BOUNDARY ARRAY FOR LAYER   1
 READING BINARY ON UNIT  156



                     BOUNDARY ARRAY FOR LAYER   2
 READING BINARY ON UNIT  157



                     BOUNDARY ARRAY FOR LAYER   3
 READING BINARY ON UNIT  158



                     BOUNDARY ARRAY FOR LAYER   4
 READING BINARY ON UNIT  159



                     BOUNDARY ARRAY FOR LAYER   5
 READING BINARY ON UNIT  160



                     BOUNDARY ARRAY FOR LAYER   6
 READING BINARY ON UNIT  161



                     BOUNDARY ARRAY FOR LAYER   7
 READING BINARY ON UNIT  162



                     BOUNDARY ARRAY FOR LAYER   8
 READING BINARY ON UNIT  163



                     BOUNDARY ARRAY FOR LAYER   9
 READING BINARY ON UNIT  164



                     BOUNDARY ARRAY FOR LAYER  10
 READING BINARY ON UNIT  165



                     BOUNDARY ARRAY FOR LAYER  11
 READING BINARY ON UNIT  166



                     BOUNDARY ARRAY FOR LAYER  12
 READING BINARY ON UNIT  167



                     BOUNDARY ARRAY FOR LAYER  13
 READING BINARY ON UNIT  168



                     BOUNDARY ARRAY FOR LAYER  14
 READING BINARY ON UNIT  169



                     BOUNDARY ARRAY FOR LAYER  15
 READING BINARY ON UNIT  170



                     BOUNDARY ARRAY FOR LAYER  16
 READING BINARY ON UNIT  171



                     BOUNDARY ARRAY FOR LAYER  17
 READING BINARY ON UNIT  172



                     BOUNDARY ARRAY FOR LAYER  18
 READING BINARY ON UNIT  173



                     BOUNDARY ARRAY FOR LAYER  19
 READING BINARY ON UNIT  174



                     BOUNDARY ARRAY FOR LAYER  20
 READING BINARY ON UNIT  175



                     BOUNDARY ARRAY FOR LAYER  21
 READING BINARY ON UNIT  176



                     BOUNDARY ARRAY FOR LAYER  22
 READING BINARY ON UNIT  177



                     BOUNDARY ARRAY FOR LAYER  23
 READING BINARY ON UNIT  178



                     BOUNDARY ARRAY FOR LAYER  24
 READING BINARY ON UNIT  179



                     BOUNDARY ARRAY FOR LAYER  25
 READING BINARY ON UNIT  180



                     BOUNDARY ARRAY FOR LAYER  26
 READING BINARY ON UNIT  181



                     BOUNDARY ARRAY FOR LAYER  27
 READING BINARY ON UNIT  182



                     BOUNDARY ARRAY FOR LAYER  28
 READING BINARY ON UNIT  183



                     BOUNDARY ARRAY FOR LAYER  29
 READING BINARY ON UNIT  184



                     BOUNDARY ARRAY FOR LAYER  30
 READING BINARY ON UNIT  185



                     BOUNDARY ARRAY FOR LAYER  31
 READING BINARY ON UNIT  186



                     BOUNDARY ARRAY FOR LAYER  32
 READING BINARY ON UNIT  187



                     BOUNDARY ARRAY FOR LAYER  33
 READING BINARY ON UNIT  188



                     BOUNDARY ARRAY FOR LAYER  34
 READING BINARY ON UNIT  189



                     BOUNDARY ARRAY FOR LAYER  35
 READING BINARY ON UNIT  190



                     BOUNDARY ARRAY FOR LAYER  36
 READING BINARY ON UNIT  191



                     BOUNDARY ARRAY FOR LAYER  37
 READING BINARY ON UNIT  192



                     BOUNDARY ARRAY FOR LAYER  38
 READING BINARY ON UNIT  193



                     BOUNDARY ARRAY FOR LAYER  39
 READING BINARY ON UNIT  194



                     BOUNDARY ARRAY FOR LAYER  40
 READING BINARY ON UNIT  195



                     BOUNDARY ARRAY FOR LAYER  41
 READING BINARY ON UNIT  196



                     BOUNDARY ARRAY FOR LAYER  42
 READING BINARY ON UNIT  197



                     BOUNDARY ARRAY FOR LAYER  43
 READING BINARY ON UNIT  198



                     BOUNDARY ARRAY FOR LAYER  44
 READING BINARY ON UNIT  199



                     BOUNDARY ARRAY FOR LAYER  45
 READING BINARY ON UNIT  201



                     BOUNDARY ARRAY FOR LAYER  46
 READING BINARY ON UNIT  202



                     BOUNDARY ARRAY FOR LAYER  47
 READING BINARY ON UNIT  203



                     BOUNDARY ARRAY FOR LAYER  48
 READING BINARY ON UNIT  204



                     BOUNDARY ARRAY FOR LAYER  49
 READING BINARY ON UNIT  205



                     BOUNDARY ARRAY FOR LAYER  50
 READING BINARY ON UNIT  206

 AQUIFER HEAD WILL BE SET TO 1.00000E+30 AT ALL NO-FLOW NODES (IBOUND=0).

             INITIAL HEAD =   50.0000     FOR LAYER   1

             INITIAL HEAD =   50.0000     FOR LAYER   2

             INITIAL HEAD =   50.0000     FOR LAYER   3

             INITIAL HEAD =   50.0000     FOR LAYER   4

             INITIAL HEAD =   50.0000     FOR LAYER   5

             INITIAL HEAD =   50.0000     FOR LAYER   6

             INITIAL HEAD =   50.0000     FOR LAYER   7

             INITIAL HEAD =   50.0000     FOR LAYER   8

             INITIAL HEAD =   50.0000     FOR LAYER   9

             INITIAL HEAD =   50.0000     FOR LAYER  10

             INITIAL HEAD =   50.0000     FOR LAYER  11

             INITIAL HEAD =   50.0000     FOR LAYER  12

             INITIAL HEAD =   50.0000     FOR LAYER  13

             INITIAL HEAD =   50.0000     FOR LAYER  14

             INITIAL HEAD =   50.0000     FOR LAYER  15

             INITIAL HEAD =   50.0000     FOR LAYER  16

             INITIAL HEAD =   50.0000     FOR LAYER  17

             INITIAL HEAD =   50.0000     FOR LAYER  18

             INITIAL HEAD =   50.0000     FOR LAYER  19

             INITIAL HEAD =   50.0000     FOR LAYER  20

             INITIAL HEAD =   50.0000     FOR LAYER  21

             INITIAL HEAD =   50.0000     FOR LAYER  22

             INITIAL HEAD =   50.0000     FOR LAYER  23

             INITIAL HEAD =   50.0000     FOR LAYER  24

             INITIAL HEAD =   50.0000     FOR LAYER  25

             INITIAL HEAD =   50.0000     FOR LAYER  26

             INITIAL HEAD =   50.0000     FOR LAYER  27

             INITIAL HEAD =   50.0000     FOR LAYER  28

             INITIAL HEAD =   50.0000     FOR LAYER  29

             INITIAL HEAD =   50.0000     FOR LAYER  30

             INITIAL HEAD =   50.0000     FOR LAYER  31

             INITIAL HEAD =   50.0000     FOR LAYER  32

             INITIAL HEAD =   50.0000     FOR LAYER  33

             INITIAL HEAD =   50.0000     FOR LAYER  34

             INITIAL HEAD =   50.0000     FOR LAYER  35

             INITIAL HEAD =   50.0000     FOR LAYER  36

             INITIAL HEAD =   50.0000     FOR LAYER  37

             INITIAL HEAD =   50.0000     FOR LAYER  38

             INITIAL HEAD =   50.0000     FOR LAYER  39

             INITIAL HEAD =   50.0000     FOR LAYER  40

             INITIAL HEAD =   50.0000     FOR LAYER  41

             INITIAL HEAD =   50.0000     FOR LAYER  42

             INITIAL HEAD =   50.0000     FOR LAYER  43

             INITIAL HEAD =   50.0000     FOR LAYER  44

             INITIAL HEAD =   50.0000     FOR LAYER  45

             INITIAL HEAD =   50.0000     FOR LAYER  46

             INITIAL HEAD =   50.0000     FOR LAYER  47

             INITIAL HEAD =   50.0000     FOR LAYER  48

             INITIAL HEAD =   50.0000     FOR LAYER  49

             INITIAL HEAD =   50.0000     FOR LAYER  50

 OUTPUT CONTROL IS SPECIFIED ONLY AT TIME STEPS FOR WHICH OUTPUT IS DESIRED
 HEAD PRINT FORMAT CODE IS   0    DRAWDOWN PRINT FORMAT CODE IS   0
 HEADS WILL BE SAVED ON UNIT   99    DRAWDOWNS WILL BE SAVED ON UNIT    0


     0 Well parameters
 LAYER NUMBER  AQUIFER TYPE
 ------------  ------------
       1            0
       2            0
       3            0
       4            0
       5            0
       6            0
       7            0
       8            0
       9            0
      10            0
      11            0
      12            0
      13            0
      14            0
      15            0
      16            0
      17            0
      18            0
      19            0
      20            0
      21            0
      22            0
      23            0
      24            0
      25            0
      26            0
      27            0
      28            0
      29            0
      30            0
      31            0
      32            0
      33            0
      34            0
      35            0
      36            0
      37            0
      38            0
      39            0
      40            0
      41            0
      42            0
      43            0
      44            0
      45            0
      46            0
      47            0
      48            0
      49            0
      50            0



           WIDTH ALONG ROWS (DELR) 
 READING ON UNIT   30 WITH FORMAT: (FREE)              
   1.0000       1.0000       1.0000       1.0000       1.0000       1.0000       1.0000       1.0000       1.0000       1.0000    
   1.0000       1.0000       1.0000       1.0000       1.0000       1.0000       1.0000       1.0000       1.0000       1.0000    
   1.0000       1.0000       1.0000       1.0000       1.0000       1.0000       1.0000       1.0000       1.0000       1.0000    
   1.0000       1.0000       1.0000       1.0000       1.0000       1.0000       1.0000       1.0000       1.0000       1.0000    
   1.0000       1.0000       1.0000       1.0000       1.0000       1.0000       1.0000       1.0000       1.0000       1.0000    
   1.0000       1.0000       1.0000       1.0000       1.0000       1.0000       1.0000       1.0000       1.0000       1.0000    
   1.0000       1.0000       1.0000       1.0000       1.0000       1.0000       1.0000       1.0000       1.0000       1.0000    
   1.0000       1.0000       1.0000       1.0000       1.0000       1.0000       1.0000       1.0000       1.0000       1.0000    
   1.0000       1.0000       1.0000       1.0000       1.0000       1.0000       1.0000       1.0000       1.0000       1.0000    
   1.0000       1.0000       1.0000       1.0000       1.0000       1.0000       1.0000       1.0000       1.0000       1.0000    



           WIDTH ALONG COLS (DELC) 
 READING ON UNIT   30 WITH FORMAT: (FREE)              
   1.0000    

 TOP ELEV. OF 1ST LAYER   =   50.0000    

 CELL THICKNESS (DZ)      =   1.00000    

 CELL THICKNESS (DZ)      =   1.00000    

 CELL THICKNESS (DZ)      =   1.00000    

 CELL THICKNESS (DZ)      =   1.00000    

 CELL THICKNESS (DZ)      =   1.00000    

 CELL THICKNESS (DZ)      =   1.00000    

 CELL THICKNESS (DZ)      =   1.00000    

 CELL THICKNESS (DZ)      =   1.00000    

 CELL THICKNESS (DZ)      =   1.00000    

 CELL THICKNESS (DZ)      =   1.00000    

 CELL THICKNESS (DZ)      =   1.00000    

 CELL THICKNESS (DZ)      =   1.00000    

 CELL THICKNESS (DZ)      =   1.00000    

 CELL THICKNESS (DZ)      =   1.00000    

 CELL THICKNESS (DZ)      =   1.00000    

 CELL THICKNESS (DZ)      =   1.00000    

 CELL THICKNESS (DZ)      =   1.00000    

 CELL THICKNESS (DZ)      =   1.00000    

 CELL THICKNESS (DZ)      =   1.00000    

 CELL THICKNESS (DZ)      =   1.00000    

 CELL THICKNESS (DZ)      =   1.00000    

 CELL THICKNESS (DZ)      =   1.00000    

 CELL THICKNESS (DZ)      =   1.00000    

 CELL THICKNESS (DZ)      =   1.00000    

 CELL THICKNESS (DZ)      =   1.00000    

 CELL THICKNESS (DZ)      =   1.00000    

 CELL THICKNESS (DZ)      =   1.00000    

 CELL THICKNESS (DZ)      =   1.00000    

 CELL THICKNESS (DZ)      =   1.00000    

 CELL THICKNESS (DZ)      =   1.00000    

 CELL THICKNESS (DZ)      =   1.00000    

 CELL THICKNESS (DZ)      =   1.00000    

 CELL THICKNESS (DZ)      =   1.00000    

 CELL THICKNESS (DZ)      =   1.00000    

 CELL THICKNESS (DZ)      =   1.00000    

 CELL THICKNESS (DZ)      =   1.00000    

 CELL THICKNESS (DZ)      =   1.00000    

 CELL THICKNESS (DZ)      =   1.00000    

 CELL THICKNESS (DZ)      =   1.00000    

 CELL THICKNESS (DZ)      =   1.00000    

 CELL THICKNESS (DZ)      =   1.00000    

 CELL THICKNESS (DZ)      =   1.00000    

 CELL THICKNESS (DZ)      =   1.00000    

 CELL THICKNESS (DZ)      =   1.00000    

 CELL THICKNESS (DZ)      =   1.00000    

 CELL THICKNESS (DZ)      =   1.00000    

 CELL THICKNESS (DZ)      =   1.00000    

 CELL THICKNESS (DZ)      =   1.00000    

 CELL THICKNESS (DZ)      =   1.00000    

 CELL THICKNESS (DZ)      =   1.00000    

 POROSITY                 =   35.0000    

 POROSITY                 =   35.0000    

 POROSITY                 =   35.0000    

 POROSITY                 =   35.0000    

 POROSITY                 =   35.0000    

 POROSITY                 =   35.0000    

 POROSITY                 =   35.0000    

 POROSITY                 =   35.0000    

 POROSITY                 =   35.0000    

 POROSITY                 =   35.0000    

 POROSITY                 =   35.0000    

 POROSITY                 =   35.0000    

 POROSITY                 =   35.0000    

 POROSITY                 =   35.0000    

 POROSITY                 =   35.0000    

 POROSITY                 =   35.0000    

 POROSITY                 =   35.0000    

 POROSITY                 =   35.0000    

 POROSITY                 =   35.0000    

 POROSITY                 =   35.0000    

 POROSITY                 =   35.0000    

 POROSITY                 =   35.0000    

 POROSITY                 =   35.0000    

 POROSITY                 =   35.0000    

 POROSITY                 =   35.0000    

 POROSITY                 =   35.0000    

 POROSITY                 =   35.0000    

 POROSITY                 =   35.0000    

 POROSITY                 =   35.0000    

 POROSITY                 =   35.0000    

 POROSITY                 =   35.0000    

 POROSITY                 =   35.0000    

 POROSITY                 =   35.0000    

 POROSITY                 =   35.0000    

 POROSITY                 =   35.0000    

 POROSITY                 =   35.0000    

 POROSITY                 =   35.0000    

 POROSITY                 =   35.0000    

 POROSITY                 =   35.0000    

 POROSITY                 =   35.0000    

 POROSITY                 =   35.0000    

 POROSITY                 =   35.0000    

 POROSITY                 =   35.0000    

 POROSITY                 =   35.0000    

 POROSITY                 =   35.0000    

 POROSITY                 =   35.0000    

 POROSITY                 =   35.0000    

 POROSITY                 =   35.0000    

 POROSITY                 =   35.0000    

 POROSITY                 =   35.0000    



           CONCN. BOUNDARY ARRAY    FOR LAYER   1
 READING BINARY ON UNIT   42



           CONCN. BOUNDARY ARRAY    FOR LAYER   2
 READING BINARY ON UNIT   44



           CONCN. BOUNDARY ARRAY    FOR LAYER   3
 READING BINARY ON UNIT   46



           CONCN. BOUNDARY ARRAY    FOR LAYER   4
 READING BINARY ON UNIT   48



           CONCN. BOUNDARY ARRAY    FOR LAYER   5
 READING BINARY ON UNIT   50



           CONCN. BOUNDARY ARRAY    FOR LAYER   6
 READING BINARY ON UNIT   52



           CONCN. BOUNDARY ARRAY    FOR LAYER   7
 READING BINARY ON UNIT   54



           CONCN. BOUNDARY ARRAY    FOR LAYER   8
 READING BINARY ON UNIT   56



           CONCN. BOUNDARY ARRAY    FOR LAYER   9
 READING BINARY ON UNIT   58



           CONCN. BOUNDARY ARRAY    FOR LAYER  10
 READING BINARY ON UNIT   60



           CONCN. BOUNDARY ARRAY    FOR LAYER  11
 READING BINARY ON UNIT   61



           CONCN. BOUNDARY ARRAY    FOR LAYER  12
 READING BINARY ON UNIT   62



           CONCN. BOUNDARY ARRAY    FOR LAYER  13
 READING BINARY ON UNIT   63



           CONCN. BOUNDARY ARRAY    FOR LAYER  14
 READING BINARY ON UNIT   64



           CONCN. BOUNDARY ARRAY    FOR LAYER  15
 READING BINARY ON UNIT   65



           CONCN. BOUNDARY ARRAY    FOR LAYER  16
 READING BINARY ON UNIT   66



           CONCN. BOUNDARY ARRAY    FOR LAYER  17
 READING BINARY ON UNIT   67



           CONCN. BOUNDARY ARRAY    FOR LAYER  18
 READING BINARY ON UNIT   68



           CONCN. BOUNDARY ARRAY    FOR LAYER  19
 READING BINARY ON UNIT   69



           CONCN. BOUNDARY ARRAY    FOR LAYER  20
 READING BINARY ON UNIT   70



           CONCN. BOUNDARY ARRAY    FOR LAYER  21
 READING BINARY ON UNIT   71



           CONCN. BOUNDARY ARRAY    FOR LAYER  22
 READING BINARY ON UNIT   72



           CONCN. BOUNDARY ARRAY    FOR LAYER  23
 READING BINARY ON UNIT   73



           CONCN. BOUNDARY ARRAY    FOR LAYER  24
 READING BINARY ON UNIT   74



           CONCN. BOUNDARY ARRAY    FOR LAYER  25
 READING BINARY ON UNIT   75



           CONCN. BOUNDARY ARRAY    FOR LAYER  26
 READING BINARY ON UNIT   76



           CONCN. BOUNDARY ARRAY    FOR LAYER  27
 READING BINARY ON UNIT   77



           CONCN. BOUNDARY ARRAY    FOR LAYER  28
 READING BINARY ON UNIT   78



           CONCN. BOUNDARY ARRAY    FOR LAYER  29
 READING BINARY ON UNIT   79



           CONCN. BOUNDARY ARRAY    FOR LAYER  30
 READING BINARY ON UNIT   80



           CONCN. BOUNDARY ARRAY    FOR LAYER  31
 READING BINARY ON UNIT   81



           CONCN. BOUNDARY ARRAY    FOR LAYER  32
 READING BINARY ON UNIT   82



           CONCN. BOUNDARY ARRAY    FOR LAYER  33
 READING BINARY ON UNIT   83



           CONCN. BOUNDARY ARRAY    FOR LAYER  34
 READING BINARY ON UNIT   84



           CONCN. BOUNDARY ARRAY    FOR LAYER  35
 READING BINARY ON UNIT   85



           CONCN. BOUNDARY ARRAY    FOR LAYER  36
 READING BINARY ON UNIT   86



           CONCN. BOUNDARY ARRAY    FOR LAYER  37
 READING BINARY ON UNIT   87



           CONCN. BOUNDARY ARRAY    FOR LAYER  38
 READING BINARY ON UNIT   88



           CONCN. BOUNDARY ARRAY    FOR LAYER  39
 READING BINARY ON UNIT   89



           CONCN. BOUNDARY ARRAY    FOR LAYER  40
 READING BINARY ON UNIT   90



           CONCN. BOUNDARY ARRAY    FOR LAYER  41
 READING BINARY ON UNIT   91



           CONCN. BOUNDARY ARRAY    FOR LAYER  42
 READING BINARY ON UNIT   92



           CONCN. BOUNDARY ARRAY    FOR LAYER  43
 READING BINARY ON UNIT   93



           CONCN. BOUNDARY ARRAY    FOR LAYER  44
 READING BINARY ON UNIT   94



           CONCN. BOUNDARY ARRAY    FOR LAYER  45
 READING BINARY ON UNIT   95



           CONCN. BOUNDARY ARRAY    FOR LAYER  46
 READING BINARY ON UNIT   96



           CONCN. BOUNDARY ARRAY    FOR LAYER  47
 READING BINARY ON UNIT   97



           CONCN. BOUNDARY ARRAY    FOR LAYER  48
 READING BINARY ON UNIT   98



           CONCN. BOUNDARY ARRAY    FOR LAYER  49
 READING BINARY ON UNIT  104



           CONCN. BOUNDARY ARRAY    FOR LAYER  50
 READING BINARY ON UNIT  105



           INITIAL CONC.: COMP.  01
 READING ON UNIT  106 WITH FORMAT: (IDF)               



           INITIAL CONC.: COMP.  01
 READING ON UNIT  107 WITH FORMAT: (IDF)               



           INITIAL CONC.: COMP.  01
 READING ON UNIT  108 WITH FORMAT: (IDF)               



           INITIAL CONC.: COMP.  01
 READING ON UNIT  109 WITH FORMAT: (IDF)               



           INITIAL CONC.: COMP.  01
 READING ON UNIT  110 WITH FORMAT: (IDF)               



           INITIAL CONC.: COMP.  01
 READING ON UNIT  111 WITH FORMAT: (IDF)               



           INITIAL CONC.: COMP.  01
 READING ON UNIT  112 WITH FORMAT: (IDF)               



           INITIAL CONC.: COMP.  01
 READING ON UNIT  113 WITH FORMAT: (IDF)               



           INITIAL CONC.: COMP.  01
 READING ON UNIT  114 WITH FORMAT: (IDF)               



           INITIAL CONC.: COMP.  01
 READING ON UNIT  115 WITH FORMAT: (IDF)               



           INITIAL CONC.: COMP.  01
 READING ON UNIT  116 WITH FORMAT: (IDF)               



           INITIAL CONC.: COMP.  01
 READING ON UNIT  117 WITH FORMAT: (IDF)               



           INITIAL CONC.: COMP.  01
 READING ON UNIT  118 WITH FORMAT: (IDF)               



           INITIAL CONC.: COMP.  01
 READING ON UNIT  119 WITH FORMAT: (IDF)               



           INITIAL CONC.: COMP.  01
 READING ON UNIT  120 WITH FORMAT: (IDF)               



           INITIAL CONC.: COMP.  01
 READING ON UNIT  121 WITH FORMAT: (IDF)               



           INITIAL CONC.: COMP.  01
 READING ON UNIT  122 WITH FORMAT: (IDF)               



           INITIAL CONC.: COMP.  01
 READING ON UNIT  123 WITH FORMAT: (IDF)               



           INITIAL CONC.: COMP.  01
 READING ON UNIT  124 WITH FORMAT: (IDF)               



           INITIAL CONC.: COMP.  01
 READING ON UNIT  125 WITH FORMAT: (IDF)               



           INITIAL CONC.: COMP.  01
 READING ON UNIT  126 WITH FORMAT: (IDF)               



           INITIAL CONC.: COMP.  01
 READING ON UNIT  127 WITH FORMAT: (IDF)               



           INITIAL CONC.: COMP.  01
 READING ON UNIT  128 WITH FORMAT: (IDF)               



           INITIAL CONC.: COMP.  01
 READING ON UNIT  129 WITH FORMAT: (IDF)               



           INITIAL CONC.: COMP.  01
 READING ON UNIT  130 WITH FORMAT: (IDF)               



           INITIAL CONC.: COMP.  01
 READING ON UNIT  131 WITH FORMAT: (IDF)               



           INITIAL CONC.: COMP.  01
 READING ON UNIT  132 WITH FORMAT: (IDF)               



           INITIAL CONC.: COMP.  01
 READING ON UNIT  133 WITH FORMAT: (IDF)               



           INITIAL CONC.: COMP.  01
 READING ON UNIT  134 WITH FORMAT: (IDF)               



           INITIAL CONC.: COMP.  01
 READING ON UNIT  135 WITH FORMAT: (IDF)               



           INITIAL CONC.: COMP.  01
 READING ON UNIT  136 WITH FORMAT: (IDF)               



           INITIAL CONC.: COMP.  01
 READING ON UNIT  137 WITH FORMAT: (IDF)               



           INITIAL CONC.: COMP.  01
 READING ON UNIT  138 WITH FORMAT: (IDF)               



           INITIAL CONC.: COMP.  01
 READING ON UNIT  139 WITH FORMAT: (IDF)               



           INITIAL CONC.: COMP.  01
 READING ON UNIT  140 WITH FORMAT: (IDF)               



           INITIAL CONC.: COMP.  01
 READING ON UNIT  141 WITH FORMAT: (IDF)               



           INITIAL CONC.: COMP.  01
 READING ON UNIT  142 WITH FORMAT: (IDF)               



           INITIAL CONC.: COMP.  01
 READING ON UNIT  143 WITH FORMAT: (IDF)               



           INITIAL CONC.: COMP.  01
 READING ON UNIT  144 WITH FORMAT: (IDF)               



           INITIAL CONC.: COMP.  01
 READING ON UNIT  145 WITH FORMAT: (IDF)               



           INITIAL CONC.: COMP.  01
 READING ON UNIT  146 WITH FORMAT: (IDF)               



           INITIAL CONC.: COMP.  01
 READING ON UNIT  147 WITH FORMAT: (IDF)               



           INITIAL CONC.: COMP.  01
 READING ON UNIT  148 WITH FORMAT: (IDF)               



           INITIAL CONC.: COMP.  01
 READING ON UNIT  149 WITH FORMAT: (IDF)               



           INITIAL CONC.: COMP.  01
 READING ON UNIT  150 WITH FORMAT: (IDF)               



           INITIAL CONC.: COMP.  01
 READING ON UNIT  151 WITH FORMAT: (IDF)               



           INITIAL CONC.: COMP.  01
 READING ON UNIT  152 WITH FORMAT: (IDF)               



           INITIAL CONC.: COMP.  01
 READING ON UNIT  153 WITH FORMAT: (IDF)               



           INITIAL CONC.: COMP.  01
 READING ON UNIT  154 WITH FORMAT: (IDF)               



           INITIAL CONC.: COMP.  01
 READING ON UNIT  155 WITH FORMAT: (IDF)               

 VALUE INDICATING INACTIVE CONCENTRATION CELLS =   0.1000000E+31
 MINIMUM SATURATED THICKNESS [THKMIN] ALLOWED =  0.0100 OF TOTAL CELL THICKNESS


 OUTPUT CONTROL OPTIONS
 ----------------------

 DO NOT PRINT CELL CONCENTRATION
 DO NOT PRINT PARTICLE NUMBER IN EACH CELL
 DO NOT PRINT RETARDATION FACTOR
 DO NOT PRINT DISPERSION COEFFICIENT
 DO NOT SAVE CONCENTRATIONS IN UNFORMATTED FILES

 NUMBER OF TIMES AT WHICH SIMULATION RESULTS ARE SAVED =    0

 NUMBER OF OBSERVATION POINTS =    0

 SAVE ONE-LINE SUMMARY OF MASS BUDGETS IN FILES [MT3Dnnn.MAS]
  FOR EACH SPECIES ON UNITS 601 AND ABOVE, EVERY  1 TRANSPORT STEPS

 MAXIMUM LENGTH ALONG THE X (J) AXIS =   100.0000    
 MAXIMUM LENGTH ALONG THE Y (I) AXIS =   1.000000    
 MAXIMUM LENGTH ALONG THE Z (K) AXIS =   50.00000    


 ADVECTION SOLUTION OPTIONS
 --------------------------

 ADVECTION IS SOLVED WITH THE ULTIMATE SCHEME
 COURANT NUMBER ALLOWED IN SOLVING THE ADVECTION TERM =  1.00    


 DISPERSION INPUT PARAMETERS
 ---------------------------


 LONG. DISPERSIVITY (AL)  =   2.00000    

 LONG. DISPERSIVITY (AL)  =   2.00000    

 LONG. DISPERSIVITY (AL)  =   2.00000    

 LONG. DISPERSIVITY (AL)  =   2.00000    

 LONG. DISPERSIVITY (AL)  =   2.00000    

 LONG. DISPERSIVITY (AL)  =   2.00000    

 LONG. DISPERSIVITY (AL)  =   2.00000    

 LONG. DISPERSIVITY (AL)  =   2.00000    

 LONG. DISPERSIVITY (AL)  =   2.00000    

 LONG. DISPERSIVITY (AL)  =   2.00000    

 LONG. DISPERSIVITY (AL)  =   2.00000    

 LONG. DISPERSIVITY (AL)  =   2.00000    

 LONG. DISPERSIVITY (AL)  =   2.00000    

 LONG. DISPERSIVITY (AL)  =   2.00000    

 LONG. DISPERSIVITY (AL)  =   2.00000    

 LONG. DISPERSIVITY (AL)  =   2.00000    

 LONG. DISPERSIVITY (AL)  =   2.00000    

 LONG. DISPERSIVITY (AL)  =   2.00000    

 LONG. DISPERSIVITY (AL)  =   2.00000    

 LONG. DISPERSIVITY (AL)  =   2.00000    

 LONG. DISPERSIVITY (AL)  =   2.00000    

 LONG. DISPERSIVITY (AL)  =   2.00000    

 LONG. DISPERSIVITY (AL)  =   2.00000    

 LONG. DISPERSIVITY (AL)  =   2.00000    

 LONG. DISPERSIVITY (AL)  =   2.00000    

 LONG. DISPERSIVITY (AL)  =   2.00000    

 LONG. DISPERSIVITY (AL)  =   2.00000    

 LONG. DISPERSIVITY (AL)  =   2.00000    

 LONG. DISPERSIVITY (AL)  =   2.00000    

 LONG. DISPERSIVITY (AL)  =   2.00000    

 LONG. DISPERSIVITY (AL)  =   2.00000    

 LONG. DISPERSIVITY (AL)  =   2.00000    

 LONG. DISPERSIVITY (AL)  =   2.00000    

 LONG. DISPERSIVITY (AL)  =   2.00000    

 LONG. DISPERSIVITY (AL)  =   2.00000    

 LONG. DISPERSIVITY (AL)  =   2.00000    

 LONG. DISPERSIVITY (AL)  =   2.00000    

 LONG. DISPERSIVITY (AL)  =   2.00000    

 LONG. DISPERSIVITY (AL)  =   2.00000    

 LONG. DISPERSIVITY (AL)  =   2.00000    

 LONG. DISPERSIVITY (AL)  =   2.00000    

 LONG. DISPERSIVITY (AL)  =   2.00000    

 LONG. DISPERSIVITY (AL)  =   2.00000    

 LONG. DISPERSIVITY (AL)  =   2.00000    

 LONG. DISPERSIVITY (AL)  =   2.00000    

 LONG. DISPERSIVITY (AL)  =   2.00000    

 LONG. DISPERSIVITY (AL)  =   2.00000    

 LONG. DISPERSIVITY (AL)  =   2.00000    

 LONG. DISPERSIVITY (AL)  =   2.00000    

 LONG. DISPERSIVITY (AL)  =   2.00000    



           H. TRANS./LONG. DISP.   
 READING ON UNIT   31 WITH FORMAT: (FREE)              
  0.10000      0.10000      0.10000      0.10000      0.10000      0.10000      0.10000      0.10000      0.10000      0.10000    
  0.10000      0.10000      0.10000      0.10000      0.10000      0.10000      0.10000      0.10000      0.10000      0.10000    
  0.10000      0.10000      0.10000      0.10000      0.10000      0.10000      0.10000      0.10000      0.10000      0.10000    
  0.10000      0.10000      0.10000      0.10000      0.10000      0.10000      0.10000      0.10000      0.10000      0.10000    
  0.10000      0.10000      0.10000      0.10000      0.10000      0.10000      0.10000      0.10000      0.10000      0.10000    



           V. TRANS./LONG. DISP.   
 READING ON UNIT   31 WITH FORMAT: (FREE)              
  0.10000      0.10000      0.10000      0.10000      0.10000      0.10000      0.10000      0.10000      0.10000      0.10000    
  0.10000      0.10000      0.10000      0.10000      0.10000      0.10000      0.10000      0.10000      0.10000      0.10000    
  0.10000      0.10000      0.10000      0.10000      0.10000      0.10000      0.10000      0.10000      0.10000      0.10000    
  0.10000      0.10000      0.10000      0.10000      0.10000      0.10000      0.10000      0.10000      0.10000      0.10000    
  0.10000      0.10000      0.10000      0.10000      0.10000      0.10000      0.10000      0.10000      0.10000      0.10000    



           DIFFUSION COEFFICIENT   
 READING ON UNIT   31 WITH FORMAT: (FREE)              
  1.88600E-05  1.88600E-05  1.88600E-05  1.88600E-05  1.88600E-05  1.88600E-05  1.88600E-05  1.88600E-05  1.88600E-05  1.88600E-05
  1.88600E-05  1.88600E-05  1.88600E-05  1.88600E-05  1.88600E-05  1.88600E-05  1.88600E-05  1.88600E-05  1.88600E-05  1.88600E-05
  1.88600E-05  1.88600E-05  1.88600E-05  1.88600E-05  1.88600E-05  1.88600E-05  1.88600E-05  1.88600E-05  1.88600E-05  1.88600E-05
  1.88600E-05  1.88600E-05  1.88600E-05  1.88600E-05  1.88600E-05  1.88600E-05  1.88600E-05  1.88600E-05  1.88600E-05  1.88600E-05
  1.88600E-05  1.88600E-05  1.88600E-05  1.88600E-05  1.88600E-05  1.88600E-05  1.88600E-05  1.88600E-05  1.88600E-05  1.88600E-05



                                               SOLUTION BY THE GENERALIZED CONJUGATE GRADIENT METHOD
                                               -----------------------------------------------------
                                     MAXIMUM OUTER ITERATIONS ALLOWED FOR CLOSURE =      150
                                     MAXIMUM INNER ITERATIONS ALLOWED FOR CLOSURE =       30
                                                    PRECONDITIONING TYPE SELECTED =    3
                                                           ACCELERATION PARAMETER =     1.0000    
                                       CONCENTRATION CHANGE CRITERION FOR CLOSURE =    0.10000E-05
                                       GCG CONCENTRATION CHANGE PRINTOUT INTERVAL =      999


                                   ++++++++++++++++++++++++++++++++++++++++++++++++++++++++++++++
                                                       STRESS PERIOD NO.  001
                                   ++++++++++++++++++++++++++++++++++++++++++++++++++++++++++++++


 LENGTH OF CURRENT STRESS PERIOD =   365.0000    
 NUMBER OF TIME STEPS FOR CURRENT STRESS PERIOD =    1
 TIME STEP MULTIPLIER USED IN FLOW SOLUTION =   1.000000    
 USER-SPECIFIED TRANSPORT STEPSIZE =   0.000000       D
 MAXIMUM NUMBER OF TRANSPORT STEPS ALLOWED  IN ONE FLOW TIME STEP =     50000
 MULTIPLIER FOR SUCCESSIVE TRANSPORT STEPS  [USED IN IMPLICIT SCHEMES] =     1.000
 MAXIMUM TRANSPORT STEP SIZE  [USED IN IMPLICIT SCHEMES] =   0.000000       D
1
                            STRESS PERIOD NO.    1, LENGTH =   365.0000    
                            -----------------------------------------------

                              NUMBER OF TIME STEPS =     1

                               MULTIPLIER FOR DELT =     1.000

                            INITIAL TIME STEP SIZE =   365.0000    

 NO. OF POINT SINKS/SOURCES OF SPECIFIED CONCONCENTRATIONS =    0 IN STRESS PERIOD  1

 WELL NO.  LAYER   ROW   COL   STRESS RATE         NOPRINT         
 ------------------------------------------------------------------

     50 WELLS


                                          ================================================
                                                         FROM TIME =   0.0000     TO    365.00    

 
 SOLVING FOR HEAD 


     2 CALLS TO PCG ROUTINE FOR TIME STEP   1 IN STRESS PERIOD    1
     5 TOTAL ITERATIONS

 MAXIMUM HEAD CHANGE FOR EACH ITERATION (1 INDICATES THE FIRST INNER ITERATION):

    HEAD CHANGE    HEAD CHANGE    HEAD CHANGE    HEAD CHANGE    HEAD CHANGE 
   LAYER,ROW,COL  LAYER,ROW,COL  LAYER,ROW,COL  LAYER,ROW,COL  LAYER,ROW,COL
 ---------------------------------------------------------------------------
  1  0.9167E-01  0  0.4298E-03  0  0.1863E-05  0  0.7921E-08  1  0.2746E-08
   ( 50,  1, 99)  ( 50,  1, 98)  ( 50,  1, 97)  ( 50,  1, 96)  ( 41,  1, 99)

 MAXIMUM RESIDUAL FOR EACH ITERATION (1 INDICATES THE FIRST INNER ITERATION):

    RESIDUAL       RESIDUAL       RESIDUAL       RESIDUAL       RESIDUAL    
   LAYER,ROW,COL  LAYER,ROW,COL  LAYER,ROW,COL  LAYER,ROW,COL  LAYER,ROW,COL
 ---------------------------------------------------------------------------
  1  -474.1      0  -2.071      0  0.9315E-02  0 -0.3721E-04  1  0.1495E-04
   ( 50,  1, 98)  ( 50,  1, 97)  ( 50,  1, 99)  ( 50,  1, 95)  ( 41,  1, 98)


 FLOW MODEL IS TRANSIENT
 FLOW MODEL CONTAINS CONSTANT-HEAD CELLS


 MAXIMUM STEPSIZE DURING WHICH ANY PARTICLE CANNOT MOVE MORE THAN ONE CELL
 = 0.6623    (WHEN MIN. R.F.=1)  AT K=  50, I=   1, J=  99

 MAXIMUM STEPSIZE WHICH MEETS STABILITY CRITERION OF THE ADVECTION TERM
 (FOR PURE FINITE-DIFFERENCE OPTION, MIXELM=0) 
 = 0.3554    (WHEN MIN. R.F.=1)  AT K=  50, I=   1, J=  99


 TOTAL NUMBER OF POINT SOURCES/SINKS PRESENT IN THE FLOW MODEL =       100

 MAXIMUM STEPSIZE WHICH MEETS STABILITY CRITERION OF THE SINK & SOURCE TERM
 =  122.8    (WHEN MIN. R.F.=1)  AT K=   1, I=   1, J=   1

 MAXIMUM STEPSIZE WHICH MEETS STABILITY CRITERION OF THE DISPERSION TERM
 = 0.8615E-01(WHEN MIN. R.F.=1)  AT K=  49, I=   1, J=  99


     2 CALLS TO GCG PACKAGE FOR TRANSPORT TIME STEP   1 IN FLOW TIME STEP   1 STRESS PERIOD   1
     3 TOTAL ITERATIONS

 OUTPUT CONTROL FOR STRESS PERIOD    1   TIME STEP   1
    SAVE HEAD FOR ALL LAYERS
    SAVE BUDGET FOR ALL LAYERS
    SAVE BUDGET
 
 SOLVING FOR HEAD 


     2 CALLS TO PCG ROUTINE FOR TIME STEP   1 IN STRESS PERIOD    1
    16 TOTAL ITERATIONS

 MAXIMUM HEAD CHANGE FOR EACH ITERATION (1 INDICATES THE FIRST INNER ITERATION):

    HEAD CHANGE    HEAD CHANGE    HEAD CHANGE    HEAD CHANGE    HEAD CHANGE 
   LAYER,ROW,COL  LAYER,ROW,COL  LAYER,ROW,COL  LAYER,ROW,COL  LAYER,ROW,COL
 ---------------------------------------------------------------------------
  1  0.8104      0  0.3104      0  0.5361E-01  0  0.2059E-01  0  0.6172E-02
   ( 48,  1, 99)  ( 50,  1, 97)  ( 50,  1, 91)  ( 46,  1, 92)  ( 47,  1, 88)
  0  0.2465E-02  0  0.9475E-03  0  0.2834E-03  0  0.1166E-03  0 -0.4124E-04
   ( 47,  1, 83)  ( 49,  1, 79)  ( 50,  1, 74)  ( 50,  1, 69)  ( 50,  1, 84)
  0 -0.1403E-04  0 -0.5572E-05  0 -0.2221E-05  0  0.1287E-05  0  0.3440E-06
   ( 50,  1, 99)  ( 49,  1, 99)  ( 48,  1, 77)  ( 50,  1, 99)  ( 49,  1, 99)
  1 -0.1069E-06
   ( 48,  1, 94)

 MAXIMUM RESIDUAL FOR EACH ITERATION (1 INDICATES THE FIRST INNER ITERATION):

    RESIDUAL       RESIDUAL       RESIDUAL       RESIDUAL       RESIDUAL    
   LAYER,ROW,COL  LAYER,ROW,COL  LAYER,ROW,COL  LAYER,ROW,COL  LAYER,ROW,COL
 ---------------------------------------------------------------------------
  1 -0.1195E+05  0   5033.      0   1898.      0   658.9      0  -391.5    
   ( 50,  1, 98)  ( 50,  1, 99)  ( 50,  1, 99)  ( 49,  1, 99)  ( 50,  1, 99)
  0  -125.7      0  -61.43      0   20.32      0   9.706      0   4.666    
   ( 50,  1, 99)  ( 49,  1, 99)  ( 50,  1, 99)  ( 50,  1, 99)  ( 49,  1, 99)
  0   1.361      0 -0.7378      0 -0.2902      0 -0.9248E-01  0  0.4388E-01
   ( 49,  1, 99)  ( 50,  1, 99)  ( 49,  1, 99)  ( 49,  1, 99)  ( 50,  1, 99)
  1  0.1853E-01
   ( 50,  1, 99)


 FLOW MODEL IS TRANSIENT
 FLOW MODEL CONTAINS CONSTANT-HEAD CELLS


 MAXIMUM STEPSIZE DURING WHICH ANY PARTICLE CANNOT MOVE MORE THAN ONE CELL
 =  1.783    (WHEN MIN. R.F.=1)  AT K=  50, I=   1, J=  99

 MAXIMUM STEPSIZE WHICH MEETS STABILITY CRITERION OF THE ADVECTION TERM
 (FOR PURE FINITE-DIFFERENCE OPTION, MIXELM=0) 
 =  1.360    (WHEN MIN. R.F.=1)  AT K=  50, I=   1, J=  99


 TOTAL NUMBER OF POINT SOURCES/SINKS PRESENT IN THE FLOW MODEL =       100

 MAXIMUM STEPSIZE WHICH MEETS STABILITY CRITERION OF THE SINK & SOURCE TERM
 =  122.8    (WHEN MIN. R.F.=1)  AT K=   1, I=   1, J=   1

 MAXIMUM STEPSIZE WHICH MEETS STABILITY CRITERION OF THE DISPERSION TERM
 = 0.3421    (WHEN MIN. R.F.=1)  AT K=  49, I=   1, J=  99
     4 CALLS TO GCG PACKAGE FOR TRANSPORT TIME STEP   2 IN FLOW TIME STEP   1 STRESS PERIOD   1
     9 TOTAL ITERATIONS
 
 SOLVING FOR HEAD 


     2 CALLS TO PCG ROUTINE FOR TIME STEP   1 IN STRESS PERIOD    1
    24 TOTAL ITERATIONS

 MAXIMUM HEAD CHANGE FOR EACH ITERATION (1 INDICATES THE FIRST INNER ITERATION):

    HEAD CHANGE    HEAD CHANGE    HEAD CHANGE    HEAD CHANGE    HEAD CHANGE 
   LAYER,ROW,COL  LAYER,ROW,COL  LAYER,ROW,COL  LAYER,ROW,COL  LAYER,ROW,COL
 ---------------------------------------------------------------------------
  1  0.2949      0  0.1968      0  0.4364E-01  0 -0.2802E-01  0  0.1394E-01
   ( 50,  1, 97)  ( 50,  1, 91)  ( 50,  1, 82)  ( 50,  1, 95)  ( 45,  1, 79)
  0  0.7985E-02  0  0.3978E-02  0  0.2349E-02  0 -0.1277E-02  0 -0.6105E-03
   ( 50,  1, 97)  ( 47,  1, 67)  ( 48,  1, 61)  ( 50,  1, 98)  ( 50,  1, 71)
  0  0.3725E-03  0  0.1989E-03  0  0.1056E-03  0 -0.6307E-04  0 -0.3679E-04
   ( 50,  1, 42)  ( 50,  1, 99)  ( 49,  1, 99)  ( 47,  1, 57)  ( 50,  1, 99)
  0  0.2299E-04  0  0.1376E-04  0  0.8993E-05  0  0.5236E-05  0  0.2920E-05
   (  3,  1, 32)  ( 42,  1,  3)  ( 47,  1,  1)  ( 24,  1,  9)  ( 24,  1,  2)
  0  0.1878E-05  0  0.1073E-05  0  0.5855E-06  1  0.1704E-06
   (  7,  1,  3)  (  2,  1,  5)  (  5,  1,  3)  (  2,  1,  6)

 MAXIMUM RESIDUAL FOR EACH ITERATION (1 INDICATES THE FIRST INNER ITERATION):

    RESIDUAL       RESIDUAL       RESIDUAL       RESIDUAL       RESIDUAL    
   LAYER,ROW,COL  LAYER,ROW,COL  LAYER,ROW,COL  LAYER,ROW,COL  LAYER,ROW,COL
 ---------------------------------------------------------------------------
  1   7245.      0   3012.      0  -1286.      0  -984.3      0  -415.8    
   ( 50,  1, 99)  ( 50,  1, 95)  ( 50,  1, 99)  ( 50,  1, 97)  ( 50,  1, 96)
  0   306.3      0   296.0      0   89.91      0   108.5      0  -74.11    
   ( 50,  1, 99)  ( 50,  1, 99)  ( 49,  1, 99)  ( 49,  1, 99)  ( 50,  1, 99)
  0  -38.95      0  -29.50      0   14.99      0   10.09      0   6.248    
   ( 49,  1, 99)  ( 49,  1, 99)  ( 50,  1, 99)  ( 49,  1, 99)  ( 49,  1, 99)
  0  -2.847      0  -2.227      0  -1.236      0  0.5101      0  0.3835    
   ( 50,  1, 99)  ( 49,  1, 99)  ( 49,  1, 99)  ( 50,  1, 99)  ( 50,  1, 99)
  0  0.1770      0 -0.4909E-01  0 -0.5411E-01  1 -0.2798E-01
   ( 49,  1, 99)  ( 50,  1, 99)  ( 50,  1, 99)  ( 50,  1, 99)


 FLOW MODEL IS TRANSIENT
 FLOW MODEL CONTAINS CONSTANT-HEAD CELLS


 MAXIMUM STEPSIZE DURING WHICH ANY PARTICLE CANNOT MOVE MORE THAN ONE CELL
 =  3.782    (WHEN MIN. R.F.=1)  AT K=  50, I=   1, J=  99

 MAXIMUM STEPSIZE WHICH MEETS STABILITY CRITERION OF THE ADVECTION TERM
 (FOR PURE FINITE-DIFFERENCE OPTION, MIXELM=0) 
 =  3.352    (WHEN MIN. R.F.=1)  AT K=  50, I=   1, J=  99


 TOTAL NUMBER OF POINT SOURCES/SINKS PRESENT IN THE FLOW MODEL =       100

 MAXIMUM STEPSIZE WHICH MEETS STABILITY CRITERION OF THE SINK & SOURCE TERM
 =  122.8    (WHEN MIN. R.F.=1)  AT K=   1, I=   1, J=   1

 MAXIMUM STEPSIZE WHICH MEETS STABILITY CRITERION OF THE DISPERSION TERM
 = 0.8642    (WHEN MIN. R.F.=1)  AT K=  49, I=   1, J=  99
     4 CALLS TO GCG PACKAGE FOR TRANSPORT TIME STEP   3 IN FLOW TIME STEP   1 STRESS PERIOD   1
    10 TOTAL ITERATIONS
 
 SOLVING FOR HEAD 


     2 CALLS TO PCG ROUTINE FOR TIME STEP   1 IN STRESS PERIOD    1
    27 TOTAL ITERATIONS

 MAXIMUM HEAD CHANGE FOR EACH ITERATION (1 INDICATES THE FIRST INNER ITERATION):

    HEAD CHANGE    HEAD CHANGE    HEAD CHANGE    HEAD CHANGE    HEAD CHANGE 
   LAYER,ROW,COL  LAYER,ROW,COL  LAYER,ROW,COL  LAYER,ROW,COL  LAYER,ROW,COL
 ---------------------------------------------------------------------------
  1  0.1853      0  0.9019E-01  0  0.3183E-01  0  0.2466E-01  0  0.1526E-01
   ( 50,  1, 93)  ( 50,  1, 83)  ( 50,  1, 75)  ( 50,  1, 67)  ( 42,  1, 70)
  0  0.8447E-02  0  0.7148E-02  0 -0.4344E-02  0 -0.2754E-02  0 -0.1925E-02
   ( 42,  1, 62)  ( 43,  1, 54)  ( 49,  1, 73)  ( 50,  1, 67)  ( 50,  1, 61)
  0  0.1279E-02  0  0.8963E-03  0  0.7487E-03  0  0.6314E-03  0  0.3721E-03
   ( 50,  1, 78)  ( 50,  1, 96)  ( 50,  1, 10)  ( 49,  1,  1)  ( 42,  1,  3)
  0  0.2759E-03  0  0.1719E-03  0  0.8585E-04  0  0.5735E-04  0  0.3549E-04
   ( 26,  1,  5)  ( 29,  1,  2)  ( 21,  1,  2)  (  3,  1,  7)  (  5,  1,  3)
  0  0.1931E-04  0  0.1182E-04  0  0.6556E-05  0  0.3584E-05  0 -0.1934E-05
   (  1,  1,  7)  (  1,  1,  2)  (  3,  1,  1)  (  5,  1,  1)  ( 42,  1,  2)
  0 -0.9850E-06  1 -0.3972E-06
   ( 44,  1,  1)  ( 34,  1,  6)

 MAXIMUM RESIDUAL FOR EACH ITERATION (1 INDICATES THE FIRST INNER ITERATION):

    RESIDUAL       RESIDUAL       RESIDUAL       RESIDUAL       RESIDUAL    
   LAYER,ROW,COL  LAYER,ROW,COL  LAYER,ROW,COL  LAYER,ROW,COL  LAYER,ROW,COL
 ---------------------------------------------------------------------------
  1   4517.      0  -1270.      0  -2117.      0  -796.5      0   757.1    
   ( 50,  1, 99)  ( 50,  1, 98)  ( 50,  1, 99)  ( 49,  1, 99)  ( 50,  1, 99)
  0   745.5      0   237.1      0  -267.4      0  -285.5      0  -95.40    
   ( 50,  1, 99)  ( 50,  1, 95)  ( 50,  1, 99)  ( 50,  1, 99)  ( 50,  1, 99)
  0   75.85      0   118.8      0   53.85      0   46.51      0  -44.63    
   ( 50,  1, 99)  ( 50,  1, 99)  ( 50,  1, 99)  ( 49,  1, 99)  ( 50,  1, 99)
  0  -21.84      0  -18.75      0   8.560      0   5.975      0   4.692    
   ( 50,  1, 99)  ( 49,  1, 99)  ( 50,  1, 99)  ( 50,  1, 99)  ( 49,  1, 99)
  0   2.055      0  -1.122      0 -0.8735      0 -0.3702      0  0.1437    
   ( 49,  1, 99)  ( 50,  1, 99)  ( 49,  1, 99)  ( 49,  1, 99)  ( 50,  1, 99)
  0  0.1187      1  0.6258E-01
   ( 49,  1, 99)  ( 50,  1, 99)


 FLOW MODEL IS TRANSIENT
 FLOW MODEL CONTAINS CONSTANT-HEAD CELLS


 MAXIMUM STEPSIZE DURING WHICH ANY PARTICLE CANNOT MOVE MORE THAN ONE CELL
 =  5.550    (WHEN MIN. R.F.=1)  AT K=  50, I=   1, J=  98

 MAXIMUM STEPSIZE WHICH MEETS STABILITY CRITERION OF THE ADVECTION TERM
 (FOR PURE FINITE-DIFFERENCE OPTION, MIXELM=0) 
 =  5.296    (WHEN MIN. R.F.=1)  AT K=  50, I=   1, J=  98


 TOTAL NUMBER OF POINT SOURCES/SINKS PRESENT IN THE FLOW MODEL =       100

 MAXIMUM STEPSIZE WHICH MEETS STABILITY CRITERION OF THE SINK & SOURCE TERM
 =  122.8    (WHEN MIN. R.F.=1)  AT K=   1, I=   1, J=   1

 MAXIMUM STEPSIZE WHICH MEETS STABILITY CRITERION OF THE DISPERSION TERM
 =  1.348    (WHEN MIN. R.F.=1)  AT K=  49, I=   1, J=  99
     6 CALLS TO GCG PACKAGE FOR TRANSPORT TIME STEP   4 IN FLOW TIME STEP   1 STRESS PERIOD   1
    18 TOTAL ITERATIONS
 
 SOLVING FOR HEAD 


     2 CALLS TO PCG ROUTINE FOR TIME STEP   1 IN STRESS PERIOD    1
    28 TOTAL ITERATIONS

 MAXIMUM HEAD CHANGE FOR EACH ITERATION (1 INDICATES THE FIRST INNER ITERATION):

    HEAD CHANGE    HEAD CHANGE    HEAD CHANGE    HEAD CHANGE    HEAD CHANGE 
   LAYER,ROW,COL  LAYER,ROW,COL  LAYER,ROW,COL  LAYER,ROW,COL  LAYER,ROW,COL
 ---------------------------------------------------------------------------
  1  0.1131      0 -0.6115E-01  0 -0.2291E-01  0 -0.1564E-01  0 -0.1462E-01
   ( 50,  1, 88)  ( 50,  1, 97)  ( 50,  1, 98)  ( 44,  1, 90)  ( 45,  1, 85)
  0 -0.7881E-02  0 -0.6064E-02  0 -0.5779E-02  0 -0.3278E-02  0  0.2524E-02
   ( 46,  1, 80)  ( 46,  1, 73)  ( 48,  1, 69)  ( 50,  1, 64)  ( 32,  1,  5)
  0  0.2311E-02  0  0.1434E-02  0  0.1105E-02  0  0.7741E-03  0  0.3823E-03
   ( 37,  1,  4)  ( 31,  1,  5)  ( 23,  1,  4)  ( 16,  1,  3)  (  6,  1,  1)
  0  0.2383E-03  0  0.1728E-03  0  0.9211E-04  0  0.5593E-04  0  0.4070E-04
   (  2,  1,  2)  (  2,  1,  7)  (  4,  1,  3)  (  3,  1,  9)  (  5,  1,  4)
  0  0.2268E-04  0  0.1076E-04  0  0.5642E-05  0 -0.3838E-05  0 -0.2051E-05
   (  7,  1,  1)  (  1,  1,  3)  (  3,  1,  2)  ( 38,  1,  2)  ( 42,  1,  2)
  0 -0.1098E-05  0 -0.8322E-06  1 -0.2136E-06
   ( 42,  1,  1)  ( 45,  1,  1)  ( 44,  1, 26)

 MAXIMUM RESIDUAL FOR EACH ITERATION (1 INDICATES THE FIRST INNER ITERATION):

    RESIDUAL       RESIDUAL       RESIDUAL       RESIDUAL       RESIDUAL    
   LAYER,ROW,COL  LAYER,ROW,COL  LAYER,ROW,COL  LAYER,ROW,COL  LAYER,ROW,COL
 ---------------------------------------------------------------------------
  1   3572.      0   1450.      0  -1503.      0  -945.9      0  -1031.    
   ( 50,  1, 98)  ( 49,  1, 99)  ( 50,  1, 99)  ( 50,  1, 99)  ( 49,  1, 99)
  0   927.5      0   391.7      0   424.4      0  -503.5      0  -203.0    
   ( 50,  1, 99)  ( 50,  1, 99)  ( 49,  1, 99)  ( 50,  1, 99)  ( 50,  1, 99)
  0  -189.1      0   232.6      0   115.4      0   66.31      0  -54.66    
   ( 49,  1, 99)  ( 50,  1, 99)  ( 50,  1, 99)  ( 49,  1, 99)  ( 50,  1, 99)
  0  -36.20      0  -15.79      0  -8.588      0   7.036      0   3.289    
   ( 50,  1, 99)  ( 49,  1, 99)  ( 49,  1, 99)  ( 50,  1, 99)  ( 50,  1, 99)
  0   2.043      0 -0.9817      0 -0.7692      0 -0.3686      0 -0.1666    
   ( 49,  1, 99)  ( 50,  1, 99)  ( 50,  1, 99)  ( 49,  1, 99)  ( 49,  1, 99)
  0  0.1393      0  0.7353E-01  1  0.4299E-01
   ( 50,  1, 99)  ( 50,  1, 99)  ( 50,  1, 99)


 FLOW MODEL IS TRANSIENT
 FLOW MODEL CONTAINS CONSTANT-HEAD CELLS


 MAXIMUM STEPSIZE DURING WHICH ANY PARTICLE CANNOT MOVE MORE THAN ONE CELL
 =  6.855    (WHEN MIN. R.F.=1)  AT K=  50, I=   1, J=  98

 MAXIMUM STEPSIZE WHICH MEETS STABILITY CRITERION OF THE ADVECTION TERM
 (FOR PURE FINITE-DIFFERENCE OPTION, MIXELM=0) 
 =  6.629    (WHEN MIN. R.F.=1)  AT K=  50, I=   1, J=  98


 TOTAL NUMBER OF POINT SOURCES/SINKS PRESENT IN THE FLOW MODEL =       100

 MAXIMUM STEPSIZE WHICH MEETS STABILITY CRITERION OF THE SINK & SOURCE TERM
 =  122.8    (WHEN MIN. R.F.=1)  AT K=   1, I=   1, J=   1

 MAXIMUM STEPSIZE WHICH MEETS STABILITY CRITERION OF THE DISPERSION TERM
 =  1.674    (WHEN MIN. R.F.=1)  AT K=  49, I=   1, J=  99
     6 CALLS TO GCG PACKAGE FOR TRANSPORT TIME STEP   5 IN FLOW TIME STEP   1 STRESS PERIOD   1
    21 TOTAL ITERATIONS
 
 SOLVING FOR HEAD 


     2 CALLS TO PCG ROUTINE FOR TIME STEP   1 IN STRESS PERIOD    1
    27 TOTAL ITERATIONS

 MAXIMUM HEAD CHANGE FOR EACH ITERATION (1 INDICATES THE FIRST INNER ITERATION):

    HEAD CHANGE    HEAD CHANGE    HEAD CHANGE    HEAD CHANGE    HEAD CHANGE 
   LAYER,ROW,COL  LAYER,ROW,COL  LAYER,ROW,COL  LAYER,ROW,COL  LAYER,ROW,COL
 ---------------------------------------------------------------------------
  1  0.1006      0 -0.4267E-01  0 -0.2781E-01  0 -0.1121E-01  0 -0.9882E-02
   ( 50,  1, 96)  ( 50,  1, 96)  ( 50,  1, 97)  ( 48,  1, 98)  ( 44,  1, 84)
  0 -0.1069E-01  0 -0.5138E-02  0  0.2848E-02  0 -0.2634E-02  0  0.1950E-02
   ( 47,  1, 87)  ( 46,  1, 75)  ( 49,  1, 96)  ( 50,  1, 99)  ( 31,  1,  4)
  0  0.1597E-02  0  0.1125E-02  0  0.5267E-03  0  0.3929E-03  0 -0.2632E-03
   (  8,  1,  2)  ( 50,  1, 99)  ( 10,  1,  4)  (  5,  1,  6)  ( 50,  1, 99)
  0  0.1106E-03  0  0.8101E-04  0  0.7094E-04  0  0.3726E-04  0  0.1982E-04
   (  2,  1,  2)  (  2,  1,  6)  (  3,  1,  1)  (  1,  1,  6)  (  5,  1,  4)
  0  0.1400E-04  0  0.7254E-05  0  0.2861E-05  0  0.1857E-05  0 -0.1135E-05
   (  6,  1,  1)  (  2,  1,  4)  (  3,  1,  2)  (  3,  1,  1)  ( 36,  1,  6)
  0 -0.6937E-06  1 -0.2581E-06
   ( 42,  1,  6)  ( 46,  1,  1)

 MAXIMUM RESIDUAL FOR EACH ITERATION (1 INDICATES THE FIRST INNER ITERATION):

    RESIDUAL       RESIDUAL       RESIDUAL       RESIDUAL       RESIDUAL    
   LAYER,ROW,COL  LAYER,ROW,COL  LAYER,ROW,COL  LAYER,ROW,COL  LAYER,ROW,COL
 ---------------------------------------------------------------------------
  1   3487.      0  -1127.      0   1073.      0  -776.5      0  -855.7    
   ( 50,  1, 97)  (  1,  1, 99)  ( 49,  1, 99)  ( 50,  1, 99)  ( 49,  1, 99)
  0   869.4      0   764.3      0   275.8      0  -311.4      0  -397.5    
   ( 50,  1, 99)  ( 50,  1, 99)  ( 49,  1, 99)  ( 50,  1, 99)  ( 50,  1, 99)
  0  -170.5      0  -85.31      0   101.1      0   55.02      0   26.98    
   ( 50,  1, 99)  ( 49,  1, 99)  ( 50,  1, 99)  ( 50,  1, 99)  ( 49,  1, 99)
  0  -17.03      0  -13.07      0  -5.760      0  -3.484      0   2.212    
   ( 50,  1, 99)  ( 50,  1, 99)  ( 49,  1, 99)  ( 49,  1, 99)  ( 50,  1, 99)
  0  0.9939      0  0.7677      0  0.3293      0 -0.2209      0 -0.1138    
   ( 50,  1, 99)  ( 49,  1, 99)  ( 49,  1, 99)  ( 50,  1, 99)  ( 49,  1, 99)
  0 -0.7367E-01  1 -0.4117E-01
   ( 49,  1, 99)  ( 49,  1, 99)


 FLOW MODEL IS TRANSIENT
 FLOW MODEL CONTAINS CONSTANT-HEAD CELLS


 MAXIMUM STEPSIZE DURING WHICH ANY PARTICLE CANNOT MOVE MORE THAN ONE CELL
 =  7.950    (WHEN MIN. R.F.=1)  AT K=  50, I=   1, J=  97

 MAXIMUM STEPSIZE WHICH MEETS STABILITY CRITERION OF THE ADVECTION TERM
 (FOR PURE FINITE-DIFFERENCE OPTION, MIXELM=0) 
 =  7.737    (WHEN MIN. R.F.=1)  AT K=  50, I=   1, J=  97


 TOTAL NUMBER OF POINT SOURCES/SINKS PRESENT IN THE FLOW MODEL =       100

 MAXIMUM STEPSIZE WHICH MEETS STABILITY CRITERION OF THE SINK & SOURCE TERM
 =  122.8    (WHEN MIN. R.F.=1)  AT K=   1, I=   1, J=   1

 MAXIMUM STEPSIZE WHICH MEETS STABILITY CRITERION OF THE DISPERSION TERM
 =  1.925    (WHEN MIN. R.F.=1)  AT K=  49, I=   1, J=  99
     6 CALLS TO GCG PACKAGE FOR TRANSPORT TIME STEP   6 IN FLOW TIME STEP   1 STRESS PERIOD   1
    21 TOTAL ITERATIONS
 
 SOLVING FOR HEAD 


     2 CALLS TO PCG ROUTINE FOR TIME STEP   1 IN STRESS PERIOD    1
    27 TOTAL ITERATIONS

 MAXIMUM HEAD CHANGE FOR EACH ITERATION (1 INDICATES THE FIRST INNER ITERATION):

    HEAD CHANGE    HEAD CHANGE    HEAD CHANGE    HEAD CHANGE    HEAD CHANGE 
   LAYER,ROW,COL  LAYER,ROW,COL  LAYER,ROW,COL  LAYER,ROW,COL  LAYER,ROW,COL
 ---------------------------------------------------------------------------
  1  0.8804E-01  0  0.3301E-01  0 -0.2800E-01  0 -0.1029E-01  0 -0.4360E-02
   ( 50,  1, 95)  ( 47,  1, 50)  ( 50,  1, 97)  ( 48,  1, 98)  ( 48,  1, 95)
  0 -0.5028E-02  0 -0.5612E-02  0 -0.3405E-02  0 -0.1999E-02  0 -0.1127E-02
   ( 47,  1, 87)  ( 47,  1, 80)  ( 48,  1, 73)  ( 50,  1, 99)  ( 50,  1, 99)
  0  0.8114E-03  0  0.7739E-03  0  0.3941E-03  0  0.1926E-03  0 -0.1612E-03
   (  6,  1,  1)  (  2,  1,  3)  ( 50,  1, 99)  (  5,  1,  6)  (  1,  1, 57)
  0 -0.1089E-03  0 -0.6050E-04  0 -0.4209E-04  0 -0.2560E-04  0  0.1077E-04
   (  3,  1, 52)  (  2,  1, 56)  (  2,  1, 59)  (  4,  1, 55)  (  4,  1,  3)
  0  0.6677E-05  0 -0.4456E-05  0 -0.2290E-05  0 -0.1459E-05  0 -0.1238E-05
   (  6,  1,  1)  (  2,  1, 46)  (  2,  1, 40)  (  3,  1, 36)  (  3,  1, 37)
  0  0.8689E-06  1 -0.3229E-06
   ( 48,  1,  1)  (  3,  1,  3)

 MAXIMUM RESIDUAL FOR EACH ITERATION (1 INDICATES THE FIRST INNER ITERATION):

    RESIDUAL       RESIDUAL       RESIDUAL       RESIDUAL       RESIDUAL    
   LAYER,ROW,COL  LAYER,ROW,COL  LAYER,ROW,COL  LAYER,ROW,COL  LAYER,ROW,COL
 ---------------------------------------------------------------------------
  1   2885.      0   1281.      0   1084.      0  -679.3      0  -278.0    
   ( 50,  1, 97)  ( 50,  1, 95)  ( 49,  1, 99)  ( 50,  1, 99)  ( 50,  1, 99)
  0  -342.7      0   627.1      0   375.2      0   162.9      0  -141.0    
   ( 49,  1, 99)  ( 50,  1, 99)  ( 50,  1, 99)  ( 49,  1, 99)  ( 50,  1, 99)
  0  -125.2      0  -68.22      0   42.41      0   37.72      0   16.08    
   ( 50,  1, 99)  ( 49,  1, 99)  ( 50,  1, 99)  ( 50,  1, 99)  ( 49,  1, 99)
  0   9.484      0  -9.985      0  -4.023      0  -2.287      0   1.652    
   ( 49,  1, 99)  ( 50,  1, 99)  ( 50,  1, 99)  ( 49,  1, 99)  ( 50,  1, 99)
  0   1.004      0  0.4259      0  0.3142      0 -0.2178      0 -0.7383E-01
   ( 50,  1, 99)  ( 49,  1, 99)  ( 49,  1, 99)  ( 50,  1, 99)  ( 49,  1, 99)
  0 -0.8689E-01  1 -0.4742E-01
   ( 49,  1, 99)  ( 49,  1, 99)


 FLOW MODEL IS TRANSIENT
 FLOW MODEL CONTAINS CONSTANT-HEAD CELLS


 MAXIMUM STEPSIZE DURING WHICH ANY PARTICLE CANNOT MOVE MORE THAN ONE CELL
 =  8.927    (WHEN MIN. R.F.=1)  AT K=  50, I=   1, J=  96

 MAXIMUM STEPSIZE WHICH MEETS STABILITY CRITERION OF THE ADVECTION TERM
 (FOR PURE FINITE-DIFFERENCE OPTION, MIXELM=0) 
 =  8.750    (WHEN MIN. R.F.=1)  AT K=  50, I=   1, J=  96


 TOTAL NUMBER OF POINT SOURCES/SINKS PRESENT IN THE FLOW MODEL =       100

 MAXIMUM STEPSIZE WHICH MEETS STABILITY CRITERION OF THE SINK & SOURCE TERM
 =  122.8    (WHEN MIN. R.F.=1)  AT K=   1, I=   1, J=   1

 MAXIMUM STEPSIZE WHICH MEETS STABILITY CRITERION OF THE DISPERSION TERM
 =  2.101    (WHEN MIN. R.F.=1)  AT K=   1, I=   1, J=  99
     6 CALLS TO GCG PACKAGE FOR TRANSPORT TIME STEP   7 IN FLOW TIME STEP   1 STRESS PERIOD   1
    21 TOTAL ITERATIONS
 
 SOLVING FOR HEAD 


     2 CALLS TO PCG ROUTINE FOR TIME STEP   1 IN STRESS PERIOD    1
    28 TOTAL ITERATIONS

 MAXIMUM HEAD CHANGE FOR EACH ITERATION (1 INDICATES THE FIRST INNER ITERATION):

    HEAD CHANGE    HEAD CHANGE    HEAD CHANGE    HEAD CHANGE    HEAD CHANGE 
   LAYER,ROW,COL  LAYER,ROW,COL  LAYER,ROW,COL  LAYER,ROW,COL  LAYER,ROW,COL
 ---------------------------------------------------------------------------
  1  0.7584E-01  0  0.3697E-01  0 -0.2590E-01  0 -0.1039E-01  0 -0.4219E-02
   ( 50,  1, 95)  ( 44,  1,  6)  ( 50,  1, 96)  ( 48,  1, 98)  ( 49,  1, 95)
  0 -0.2410E-02  0 -0.2247E-02  0 -0.2451E-02  0 -0.1855E-02  0 -0.9031E-03
   ( 49,  1, 94)  ( 47,  1, 80)  ( 48,  1, 74)  ( 49,  1, 68)  ( 50,  1, 99)
  0  0.5062E-03  0  0.5068E-03  0  0.3243E-03  0 -0.1813E-03  0 -0.1441E-03
   (  5,  1,  1)  (  2,  1,  3)  (  5,  1,  1)  ( 11,  1, 80)  ( 11,  1, 73)
  0 -0.1116E-03  0 -0.6235E-04  0 -0.4885E-04  0 -0.3117E-04  0 -0.1355E-04
   (  2,  1, 72)  (  3,  1, 57)  (  3,  1, 60)  (  5,  1, 56)  (  3,  1, 58)
  0 -0.7676E-05  0 -0.5709E-05  0  0.3753E-05  0  0.3043E-05  0  0.2985E-05
   (  4,  1, 53)  (  3,  1, 46)  ( 45,  1, 20)  ( 46,  1,  9)  ( 48,  1,  7)
  0  0.1694E-05  0 -0.8237E-06  1 -0.2430E-06
   ( 48,  1,  1)  (  3,  1,  3)  (  3,  1,  8)

 MAXIMUM RESIDUAL FOR EACH ITERATION (1 INDICATES THE FIRST INNER ITERATION):

    RESIDUAL       RESIDUAL       RESIDUAL       RESIDUAL       RESIDUAL    
   LAYER,ROW,COL  LAYER,ROW,COL  LAYER,ROW,COL  LAYER,ROW,COL  LAYER,ROW,COL
 ---------------------------------------------------------------------------
  1   2231.      0   1295.      0   1001.      0  -650.7      0  -340.6    
   ( 50,  1, 96)  ( 50,  1, 94)  ( 49,  1, 99)  ( 50,  1, 99)  ( 50,  1, 99)
  0  -171.5      0   217.9      0   221.2      0   137.5      0  -71.74    
   ( 49,  1, 99)  ( 50,  1, 99)  ( 50,  1, 99)  ( 49,  1, 99)  ( 50,  1, 99)
  0  -77.08      0  -42.84      0   27.48      0   29.44      0   10.45    
   ( 50,  1, 99)  ( 49,  1, 99)  ( 50,  1, 99)  ( 50,  1, 99)  ( 49,  1, 99)
  0  -7.555      0  -9.551      0  -4.320      0  -1.474      0   1.765    
   ( 50,  1, 99)  ( 50,  1, 99)  ( 50,  1, 99)  ( 49,  1, 99)  ( 50,  1, 99)
  0   1.113      0  0.3221      0 -0.4259      0 -0.3523      0 -0.7961E-01
   ( 50,  1, 99)  ( 49,  1, 99)  ( 50,  1, 99)  ( 50,  1, 99)  ( 50,  1, 99)
  0 -0.8053E-01  0  0.8075E-01  1  0.4781E-01
   ( 49,  1, 99)  ( 50,  1, 99)  ( 50,  1, 99)


 FLOW MODEL IS TRANSIENT
 FLOW MODEL CONTAINS CONSTANT-HEAD CELLS


 MAXIMUM STEPSIZE DURING WHICH ANY PARTICLE CANNOT MOVE MORE THAN ONE CELL
 =  9.499    (WHEN MIN. R.F.=1)  AT K=   1, I=   1, J=  99

 MAXIMUM STEPSIZE WHICH MEETS STABILITY CRITERION OF THE ADVECTION TERM
 (FOR PURE FINITE-DIFFERENCE OPTION, MIXELM=0) 
 =  9.123    (WHEN MIN. R.F.=1)  AT K=   1, I=   1, J=  99


 TOTAL NUMBER OF POINT SOURCES/SINKS PRESENT IN THE FLOW MODEL =       100

 MAXIMUM STEPSIZE WHICH MEETS STABILITY CRITERION OF THE SINK & SOURCE TERM
 =  122.8    (WHEN MIN. R.F.=1)  AT K=   1, I=   1, J=   1

 MAXIMUM STEPSIZE WHICH MEETS STABILITY CRITERION OF THE DISPERSION TERM
 =  2.080    (WHEN MIN. R.F.=1)  AT K=   1, I=   1, J=  99
     6 CALLS TO GCG PACKAGE FOR TRANSPORT TIME STEP   8 IN FLOW TIME STEP   1 STRESS PERIOD   1
    23 TOTAL ITERATIONS
 
 SOLVING FOR HEAD 


     2 CALLS TO PCG ROUTINE FOR TIME STEP   1 IN STRESS PERIOD    1
    28 TOTAL ITERATIONS

 MAXIMUM HEAD CHANGE FOR EACH ITERATION (1 INDICATES THE FIRST INNER ITERATION):

    HEAD CHANGE    HEAD CHANGE    HEAD CHANGE    HEAD CHANGE    HEAD CHANGE 
   LAYER,ROW,COL  LAYER,ROW,COL  LAYER,ROW,COL  LAYER,ROW,COL  LAYER,ROW,COL
 ---------------------------------------------------------------------------
  1  0.6280E-01  0  0.3447E-01  0  0.2329E-01  0 -0.1021E-01  0 -0.4419E-02
   ( 50,  1, 94)  ( 44,  1,  6)  ( 50,  1,  1)  ( 48,  1, 97)  ( 49,  1, 95)
  0 -0.2025E-02  0 -0.1164E-02  0 -0.1053E-02  0 -0.1028E-02  0 -0.6549E-03
   ( 49,  1, 94)  ( 49,  1, 91)  ( 48,  1, 74)  ( 49,  1, 69)  ( 50,  1, 62)
  0 -0.3187E-03  0  0.2703E-03  0  0.2164E-03  0  0.1343E-03  0 -0.1166E-03
   ( 41,  1, 60)  (  2,  1,  3)  (  5,  1,  1)  (  4,  1,  5)  ( 15,  1, 76)
  0 -0.9912E-04  0 -0.6202E-04  0 -0.4835E-04  0 -0.3429E-04  0 -0.1511E-04
   (  1,  1, 81)  (  2,  1, 75)  (  2,  1, 68)  (  2,  1, 63)  (  4,  1, 58)
  0 -0.8666E-05  0  0.6560E-05  0  0.4359E-05  0  0.3859E-05  0  0.3420E-05
   (  5,  1, 53)  ( 49,  1,  8)  ( 42,  1, 10)  ( 46,  1,  8)  ( 48,  1,  7)
  0  0.1664E-05  0  0.7222E-06  1  0.2376E-06
   ( 48,  1,  1)  ( 47,  1,  9)  ( 50,  1,  3)

 MAXIMUM RESIDUAL FOR EACH ITERATION (1 INDICATES THE FIRST INNER ITERATION):

    RESIDUAL       RESIDUAL       RESIDUAL       RESIDUAL       RESIDUAL    
   LAYER,ROW,COL  LAYER,ROW,COL  LAYER,ROW,COL  LAYER,ROW,COL  LAYER,ROW,COL
 ---------------------------------------------------------------------------
  1   1642.      0   1135.      0   853.8      0  -590.6      0  -314.2    
   ( 50,  1, 95)  ( 50,  1, 93)  ( 49,  1, 99)  ( 50,  1, 99)  ( 50,  1, 99)
  0  -143.6      0   75.73      0   97.86      0   74.54      0  -36.80    
   ( 49,  1, 99)  ( 50,  1, 99)  ( 50,  1, 99)  ( 49,  1, 99)  ( 50,  1, 99)
  0  -44.85      0  -23.18      0   15.68      0   19.94      0   7.389    
   ( 50,  1, 99)  ( 49,  1, 99)  ( 50,  1, 99)  ( 50,  1, 99)  ( 50,  1, 99)
  0  -5.978      0  -8.269      0  -3.809      0 -0.8065      0   1.828    
   ( 50,  1, 99)  ( 50,  1, 99)  ( 50,  1, 99)  ( 49,  1, 99)  ( 50,  1, 99)
  0   1.112      0  0.2102      0 -0.4927      0 -0.3883      0  0.8855E-01
   ( 50,  1, 99)  ( 50,  1, 98)  ( 50,  1, 99)  ( 50,  1, 99)  ( 49,  1, 98)
  0 -0.6500E-01  0  0.8108E-01  1  0.4835E-01
   ( 50,  1, 98)  ( 50,  1, 99)  ( 50,  1, 99)


 FLOW MODEL IS TRANSIENT
 FLOW MODEL CONTAINS CONSTANT-HEAD CELLS


 MAXIMUM STEPSIZE DURING WHICH ANY PARTICLE CANNOT MOVE MORE THAN ONE CELL
 =  9.359    (WHEN MIN. R.F.=1)  AT K=   1, I=   1, J=  99

 MAXIMUM STEPSIZE WHICH MEETS STABILITY CRITERION OF THE ADVECTION TERM
 (FOR PURE FINITE-DIFFERENCE OPTION, MIXELM=0) 
 =  9.034    (WHEN MIN. R.F.=1)  AT K=   1, I=   1, J=  99


 TOTAL NUMBER OF POINT SOURCES/SINKS PRESENT IN THE FLOW MODEL =       100

 MAXIMUM STEPSIZE WHICH MEETS STABILITY CRITERION OF THE SINK & SOURCE TERM
 =  122.8    (WHEN MIN. R.F.=1)  AT K=   1, I=   1, J=   1

 MAXIMUM STEPSIZE WHICH MEETS STABILITY CRITERION OF THE DISPERSION TERM
 =  2.061    (WHEN MIN. R.F.=1)  AT K=   1, I=   1, J=  99
     6 CALLS TO GCG PACKAGE FOR TRANSPORT TIME STEP   9 IN FLOW TIME STEP   1 STRESS PERIOD   1
    23 TOTAL ITERATIONS
 
 SOLVING FOR HEAD 


     2 CALLS TO PCG ROUTINE FOR TIME STEP   1 IN STRESS PERIOD    1
    28 TOTAL ITERATIONS

 MAXIMUM HEAD CHANGE FOR EACH ITERATION (1 INDICATES THE FIRST INNER ITERATION):

    HEAD CHANGE    HEAD CHANGE    HEAD CHANGE    HEAD CHANGE    HEAD CHANGE 
   LAYER,ROW,COL  LAYER,ROW,COL  LAYER,ROW,COL  LAYER,ROW,COL  LAYER,ROW,COL
 ---------------------------------------------------------------------------
  1  0.5167E-01  0  0.2891E-01  0  0.2104E-01  0 -0.9046E-02  0 -0.4301E-02
   ( 50,  1, 93)  ( 44,  1,  6)  ( 50,  1,  1)  ( 48,  1, 97)  ( 49,  1, 94)
  0 -0.1780E-02  0 -0.9394E-03  0 -0.6790E-03  0 -0.6091E-03  0 -0.4011E-03
   ( 49,  1, 93)  ( 49,  1, 90)  ( 49,  1, 85)  ( 50,  1, 80)  ( 50,  1, 61)
  0 -0.1950E-03  0 -0.1326E-03  0  0.1007E-03  0  0.6345E-04  0  0.5099E-04
   ( 42,  1, 61)  ( 42,  1, 53)  ( 50,  1, 99)  (  4,  1,  5)  (  6,  1,  1)
  0  0.4616E-04  0 -0.3085E-04  0 -0.2866E-04  0 -0.2405E-04  0 -0.1243E-04
   (  3,  1,  5)  (  3,  1, 76)  (  3,  1, 69)  (  3,  1, 64)  (  5,  1, 59)
  0 -0.7790E-05  0 -0.5803E-05  0  0.3812E-05  0  0.3707E-05  0  0.3262E-05
   (  6,  1, 54)  (  2,  1, 55)  ( 41,  1,  9)  ( 46,  1,  8)  ( 46,  1,  1)
  0  0.1348E-05  0  0.6589E-06  1  0.2486E-06
   ( 50,  1,  1)  ( 43,  1,  3)  ( 50,  1,  2)

 MAXIMUM RESIDUAL FOR EACH ITERATION (1 INDICATES THE FIRST INNER ITERATION):

    RESIDUAL       RESIDUAL       RESIDUAL       RESIDUAL       RESIDUAL    
   LAYER,ROW,COL  LAYER,ROW,COL  LAYER,ROW,COL  LAYER,ROW,COL  LAYER,ROW,COL
 ---------------------------------------------------------------------------
  1   1225.      0   916.9      0   674.3      0  -491.1      0  -255.5    
   ( 50,  1, 94)  ( 50,  1, 92)  ( 49,  1, 99)  ( 50,  1, 99)  ( 50,  1, 99)
  0  -124.7      0   50.27      0   63.09      0   47.30      0  -22.62    
   ( 49,  1, 99)  ( 50,  1, 99)  ( 50,  1, 99)  ( 49,  1, 99)  ( 50,  1, 99)
  0  -27.93      0  -12.67      0   6.400      0   9.696      0   4.453    
   ( 50,  1, 99)  ( 49,  1, 99)  ( 50,  1, 99)  ( 50,  1, 99)  ( 50,  1, 99)
  0  -2.458      0  -4.438      0  -2.337      0 -0.6580      0   1.404    
   ( 50,  1, 99)  ( 50,  1, 99)  ( 50,  1, 99)  ( 50,  1, 98)  ( 50,  1, 99)
  0  0.8572      0  0.2812      0 -0.4213      0 -0.3293      0 -0.1066    
   ( 50,  1, 99)  ( 50,  1, 98)  ( 50,  1, 99)  ( 50,  1, 99)  ( 50,  1, 98)
  0 -0.8189E-01  0  0.7486E-01  1  0.4560E-01
   ( 50,  1, 98)  ( 50,  1, 99)  ( 50,  1, 99)


 FLOW MODEL IS TRANSIENT
 FLOW MODEL CONTAINS CONSTANT-HEAD CELLS


 MAXIMUM STEPSIZE DURING WHICH ANY PARTICLE CANNOT MOVE MORE THAN ONE CELL
 =  9.245    (WHEN MIN. R.F.=1)  AT K=   1, I=   1, J=  99

 MAXIMUM STEPSIZE WHICH MEETS STABILITY CRITERION OF THE ADVECTION TERM
 (FOR PURE FINITE-DIFFERENCE OPTION, MIXELM=0) 
 =  8.953    (WHEN MIN. R.F.=1)  AT K=   1, I=   1, J=  99


 TOTAL NUMBER OF POINT SOURCES/SINKS PRESENT IN THE FLOW MODEL =       100

 MAXIMUM STEPSIZE WHICH MEETS STABILITY CRITERION OF THE SINK & SOURCE TERM
 =  122.8    (WHEN MIN. R.F.=1)  AT K=   1, I=   1, J=   1

 MAXIMUM STEPSIZE WHICH MEETS STABILITY CRITERION OF THE DISPERSION TERM
 =  2.043    (WHEN MIN. R.F.=1)  AT K=   1, I=   1, J=  99
     6 CALLS TO GCG PACKAGE FOR TRANSPORT TIME STEP  10 IN FLOW TIME STEP   1 STRESS PERIOD   1
    22 TOTAL ITERATIONS
 
 SOLVING FOR HEAD 


     2 CALLS TO PCG ROUTINE FOR TIME STEP   1 IN STRESS PERIOD    1
    28 TOTAL ITERATIONS

 MAXIMUM HEAD CHANGE FOR EACH ITERATION (1 INDICATES THE FIRST INNER ITERATION):

    HEAD CHANGE    HEAD CHANGE    HEAD CHANGE    HEAD CHANGE    HEAD CHANGE 
   LAYER,ROW,COL  LAYER,ROW,COL  LAYER,ROW,COL  LAYER,ROW,COL  LAYER,ROW,COL
 ---------------------------------------------------------------------------
  1  0.4287E-01  0  0.2399E-01  0  0.1824E-01  0 -0.7780E-02  0 -0.3892E-02
   ( 50,  1, 92)  ( 44,  1,  6)  ( 50,  1,  1)  ( 48,  1, 97)  ( 49,  1, 94)
  0 -0.1573E-02  0 -0.7986E-03  0 -0.5730E-03  0 -0.4865E-03  0  0.3021E-03
   ( 49,  1, 92)  ( 49,  1, 90)  ( 50,  1, 86)  ( 50,  1, 82)  (  3,  1, 79)
  0  0.1595E-03  0  0.1048E-03  0  0.7652E-04  0  0.3518E-04  0  0.2622E-04
   (  4,  1, 73)  (  4,  1, 65)  ( 50,  1, 99)  (  4,  1,  5)  (  1,  1,  9)
  0  0.2241E-04  0  0.1382E-04  0  0.1007E-04  0 -0.8651E-05  0  0.4537E-05
   (  3,  1,  5)  (  5,  1,  2)  (  2,  1, 13)  (  3,  1, 74)  (  4,  1,  1)
  0 -0.3362E-05  0 -0.2960E-05  0 -0.1610E-05  0  0.1563E-05  0  0.1958E-05
   (  3,  1, 62)  (  5,  1, 57)  (  8,  1, 54)  ( 45,  1,  7)  ( 46,  1,  1)
  0  0.1097E-05  0  0.6279E-06  1  0.2054E-06
   ( 46,  1, 10)  ( 44,  1,  3)  ( 50,  1,  1)

 MAXIMUM RESIDUAL FOR EACH ITERATION (1 INDICATES THE FIRST INNER ITERATION):

    RESIDUAL       RESIDUAL       RESIDUAL       RESIDUAL       RESIDUAL    
   LAYER,ROW,COL  LAYER,ROW,COL  LAYER,ROW,COL  LAYER,ROW,COL  LAYER,ROW,COL
 ---------------------------------------------------------------------------
  1   954.6      0   736.5      0   530.7      0  -401.0      0  -203.7    
   ( 50,  1, 94)  ( 50,  1, 90)  ( 49,  1, 99)  ( 50,  1, 99)  ( 50,  1, 99)
  0  -105.4      0   42.49      0   48.91      0   36.12      0  -18.95    
   ( 49,  1, 99)  ( 50,  1, 99)  ( 50,  1, 99)  ( 49,  1, 99)  ( 50,  1, 99)
  0  -22.06      0  -9.617      0   4.335      0   6.511      0   3.222    
   ( 50,  1, 99)  ( 49,  1, 99)  ( 50,  1, 99)  ( 50,  1, 99)  ( 50,  1, 99)
  0  0.9578      0  -1.961      0  -1.217      0 -0.3745      0  0.6046    
   ( 48,  1, 99)  ( 50,  1, 99)  ( 50,  1, 99)  ( 50,  1, 98)  ( 50,  1, 99)
  0  0.4400      0  0.1625      0 -0.1937      0 -0.1891      0 -0.9744E-01
   ( 50,  1, 99)  ( 50,  1, 98)  ( 50,  1, 99)  ( 50,  1, 99)  ( 50,  1, 98)
  0 -0.7189E-01  0  0.6328E-01  1  0.3845E-01
   ( 50,  1, 98)  ( 50,  1, 99)  ( 50,  1, 99)


 FLOW MODEL IS TRANSIENT
 FLOW MODEL CONTAINS CONSTANT-HEAD CELLS


 MAXIMUM STEPSIZE DURING WHICH ANY PARTICLE CANNOT MOVE MORE THAN ONE CELL
 =  9.144    (WHEN MIN. R.F.=1)  AT K=   1, I=   1, J=  99

 MAXIMUM STEPSIZE WHICH MEETS STABILITY CRITERION OF THE ADVECTION TERM
 (FOR PURE FINITE-DIFFERENCE OPTION, MIXELM=0) 
 =  8.874    (WHEN MIN. R.F.=1)  AT K=   1, I=   1, J=  99


 TOTAL NUMBER OF POINT SOURCES/SINKS PRESENT IN THE FLOW MODEL =       100

 MAXIMUM STEPSIZE WHICH MEETS STABILITY CRITERION OF THE SINK & SOURCE TERM
 =  122.8    (WHEN MIN. R.F.=1)  AT K=   1, I=   1, J=   1

 MAXIMUM STEPSIZE WHICH MEETS STABILITY CRITERION OF THE DISPERSION TERM
 =  2.026    (WHEN MIN. R.F.=1)  AT K=   1, I=   1, J=  99
     6 CALLS TO GCG PACKAGE FOR TRANSPORT TIME STEP  11 IN FLOW TIME STEP   1 STRESS PERIOD   1
    22 TOTAL ITERATIONS
 
 SOLVING FOR HEAD 


     2 CALLS TO PCG ROUTINE FOR TIME STEP   1 IN STRESS PERIOD    1
    24 TOTAL ITERATIONS

 MAXIMUM HEAD CHANGE FOR EACH ITERATION (1 INDICATES THE FIRST INNER ITERATION):

    HEAD CHANGE    HEAD CHANGE    HEAD CHANGE    HEAD CHANGE    HEAD CHANGE 
   LAYER,ROW,COL  LAYER,ROW,COL  LAYER,ROW,COL  LAYER,ROW,COL  LAYER,ROW,COL
 ---------------------------------------------------------------------------
  1  0.3542E-01  0  0.1971E-01  0  0.1587E-01  0 -0.6747E-02  0 -0.3598E-02
   ( 50,  1, 92)  ( 44,  1,  6)  ( 50,  1,  1)  ( 48,  1, 97)  ( 48,  1, 93)
  0 -0.1417E-02  0 -0.6959E-03  0 -0.5055E-03  0 -0.4218E-03  0  0.2713E-03
   ( 49,  1, 91)  ( 49,  1, 89)  ( 50,  1, 85)  ( 50,  1, 83)  (  3,  1, 79)
  0  0.1543E-03  0  0.1026E-03  0  0.6544E-04  0  0.3151E-04  0  0.2197E-04
   (  2,  1, 82)  (  4,  1, 65)  (  1,  1, 65)  (  3,  1, 53)  (  4,  1, 48)
  0  0.1582E-04  0 -0.9189E-05  0 -0.7650E-05  0 -0.7125E-05  0 -0.3288E-05
   (  3,  1, 55)  ( 47,  1, 17)  ( 50,  1,  3)  ( 50,  1,  1)  ( 42,  1, 11)
  0 -0.1878E-05  0 -0.1553E-05  0 -0.7749E-06  1 -0.2208E-06
   ( 42,  1,  2)  ( 50,  1,  2)  ( 48,  1,  7)  ( 38,  1,  7)

 MAXIMUM RESIDUAL FOR EACH ITERATION (1 INDICATES THE FIRST INNER ITERATION):

    RESIDUAL       RESIDUAL       RESIDUAL       RESIDUAL       RESIDUAL    
   LAYER,ROW,COL  LAYER,ROW,COL  LAYER,ROW,COL  LAYER,ROW,COL  LAYER,ROW,COL
 ---------------------------------------------------------------------------
  1   748.5      0   597.1      0   429.5      0  -334.8      0  -167.2    
   ( 50,  1, 93)  ( 50,  1, 89)  ( 49,  1, 99)  ( 50,  1, 99)  ( 50,  1, 99)
  0  -89.98      0   37.20      0   39.87      0   28.88      0  -16.70    
   ( 49,  1, 99)  ( 50,  1, 99)  ( 50,  1, 99)  ( 49,  1, 99)  ( 50,  1, 99)
  0  -18.55      0  -7.962      0   3.915      0   5.501      0   2.642    
   ( 50,  1, 99)  ( 49,  1, 99)  ( 50,  1, 99)  ( 50,  1, 99)  ( 50,  1, 99)
  0  0.7896      0  -1.505      0 -0.9374      0 -0.3034      0  0.3727    
   ( 48,  1, 99)  ( 50,  1, 99)  ( 50,  1, 99)  ( 50,  1, 98)  ( 50,  1, 99)
  0  0.2923      0  0.8197E-01  0  0.6611E-01  1  0.3428E-01
   ( 50,  1, 99)  ( 50,  1, 98)  ( 50,  1, 98)  ( 50,  1, 98)


 FLOW MODEL IS TRANSIENT
 FLOW MODEL CONTAINS CONSTANT-HEAD CELLS


 MAXIMUM STEPSIZE DURING WHICH ANY PARTICLE CANNOT MOVE MORE THAN ONE CELL
 =  9.057    (WHEN MIN. R.F.=1)  AT K=   1, I=   1, J=  99

 MAXIMUM STEPSIZE WHICH MEETS STABILITY CRITERION OF THE ADVECTION TERM
 (FOR PURE FINITE-DIFFERENCE OPTION, MIXELM=0) 
 =  8.803    (WHEN MIN. R.F.=1)  AT K=   1, I=   1, J=  99


 TOTAL NUMBER OF POINT SOURCES/SINKS PRESENT IN THE FLOW MODEL =       100

 MAXIMUM STEPSIZE WHICH MEETS STABILITY CRITERION OF THE SINK & SOURCE TERM
 =  122.8    (WHEN MIN. R.F.=1)  AT K=   1, I=   1, J=   1

 MAXIMUM STEPSIZE WHICH MEETS STABILITY CRITERION OF THE DISPERSION TERM
 =  2.009    (WHEN MIN. R.F.=1)  AT K=   1, I=   1, J=  99
     6 CALLS TO GCG PACKAGE FOR TRANSPORT TIME STEP  12 IN FLOW TIME STEP   1 STRESS PERIOD   1
    21 TOTAL ITERATIONS
 
 SOLVING FOR HEAD 


     2 CALLS TO PCG ROUTINE FOR TIME STEP   1 IN STRESS PERIOD    1
    25 TOTAL ITERATIONS

 MAXIMUM HEAD CHANGE FOR EACH ITERATION (1 INDICATES THE FIRST INNER ITERATION):

    HEAD CHANGE    HEAD CHANGE    HEAD CHANGE    HEAD CHANGE    HEAD CHANGE 
   LAYER,ROW,COL  LAYER,ROW,COL  LAYER,ROW,COL  LAYER,ROW,COL  LAYER,ROW,COL
 ---------------------------------------------------------------------------
  1  0.2932E-01  0  0.1607E-01  0  0.1384E-01  0 -0.5913E-02  0 -0.3287E-02
   ( 50,  1, 91)  ( 44,  1,  6)  ( 50,  1,  1)  ( 47,  1, 97)  ( 48,  1, 93)
  0 -0.1283E-02  0 -0.6093E-03  0 -0.4509E-03  0 -0.3741E-03  0  0.2408E-03
   ( 49,  1, 90)  ( 49,  1, 88)  ( 50,  1, 85)  ( 50,  1, 83)  (  3,  1, 78)
  0  0.1452E-03  0  0.9775E-04  0  0.6127E-04  0  0.2886E-04  0  0.2011E-04
   (  2,  1, 81)  (  3,  1, 75)  (  2,  1, 66)  (  1,  1, 60)  (  5,  1, 49)
  0  0.1511E-04  0 -0.8839E-05  0 -0.7876E-05  0 -0.6873E-05  0 -0.3492E-05
   (  3,  1, 55)  ( 46,  1, 15)  ( 50,  1,  3)  ( 50,  1,  1)  ( 42,  1, 11)
  0 -0.2226E-05  0 -0.1867E-05  0 -0.1020E-05  0  0.6547E-06  1  0.1988E-06
   ( 42,  1,  2)  ( 50,  1,  1)  ( 48,  1,  7)  (  4,  1, 80)  (  4,  1, 66)

 MAXIMUM RESIDUAL FOR EACH ITERATION (1 INDICATES THE FIRST INNER ITERATION):

    RESIDUAL       RESIDUAL       RESIDUAL       RESIDUAL       RESIDUAL    
   LAYER,ROW,COL  LAYER,ROW,COL  LAYER,ROW,COL  LAYER,ROW,COL  LAYER,ROW,COL
 ---------------------------------------------------------------------------
  1   583.5      0   487.6      0   354.3      0  -284.6      0  -140.3    
   ( 50,  1, 92)  ( 50,  1, 89)  ( 49,  1, 99)  ( 50,  1, 99)  ( 50,  1, 99)
  0  -77.67      0   32.94      0   33.30      0   23.49      0  -14.68    
   ( 49,  1, 99)  ( 50,  1, 99)  ( 50,  1, 99)  ( 49,  1, 99)  ( 50,  1, 99)
  0  -15.77      0  -6.631      0   3.630      0   4.821      0   2.225    
   ( 50,  1, 99)  ( 49,  1, 99)  ( 50,  1, 99)  ( 50,  1, 99)  ( 50,  1, 99)
  0  0.6711      0  -1.368      0 -0.8255      0 -0.3154      0  0.3745    
   ( 48,  1, 99)  ( 50,  1, 99)  ( 50,  1, 99)  ( 50,  1, 98)  ( 50,  1, 99)
  0  0.2893      0  0.1122      0  0.8108E-01  0 -0.9365E-01  1 -0.5318E-01
   ( 50,  1, 99)  ( 50,  1, 98)  ( 50,  1, 98)  ( 50,  1, 99)  ( 50,  1, 99)


 FLOW MODEL IS TRANSIENT
 FLOW MODEL CONTAINS CONSTANT-HEAD CELLS


 MAXIMUM STEPSIZE DURING WHICH ANY PARTICLE CANNOT MOVE MORE THAN ONE CELL
 =  8.984    (WHEN MIN. R.F.=1)  AT K=   1, I=   1, J=  99

 MAXIMUM STEPSIZE WHICH MEETS STABILITY CRITERION OF THE ADVECTION TERM
 (FOR PURE FINITE-DIFFERENCE OPTION, MIXELM=0) 
 =  8.741    (WHEN MIN. R.F.=1)  AT K=   1, I=   1, J=  99


 TOTAL NUMBER OF POINT SOURCES/SINKS PRESENT IN THE FLOW MODEL =       100

 MAXIMUM STEPSIZE WHICH MEETS STABILITY CRITERION OF THE SINK & SOURCE TERM
 =  122.8    (WHEN MIN. R.F.=1)  AT K=   1, I=   1, J=   1

 MAXIMUM STEPSIZE WHICH MEETS STABILITY CRITERION OF THE DISPERSION TERM
 =  1.995    (WHEN MIN. R.F.=1)  AT K=   1, I=   1, J=  99
     6 CALLS TO GCG PACKAGE FOR TRANSPORT TIME STEP  13 IN FLOW TIME STEP   1 STRESS PERIOD   1
    21 TOTAL ITERATIONS
 
 SOLVING FOR HEAD 


     2 CALLS TO PCG ROUTINE FOR TIME STEP   1 IN STRESS PERIOD    1
    25 TOTAL ITERATIONS

 MAXIMUM HEAD CHANGE FOR EACH ITERATION (1 INDICATES THE FIRST INNER ITERATION):

    HEAD CHANGE    HEAD CHANGE    HEAD CHANGE    HEAD CHANGE    HEAD CHANGE 
   LAYER,ROW,COL  LAYER,ROW,COL  LAYER,ROW,COL  LAYER,ROW,COL  LAYER,ROW,COL
 ---------------------------------------------------------------------------
  1  0.2404E-01  0  0.1296E-01  0  0.1205E-01  0 -0.5229E-02  0 -0.2983E-02
   ( 50,  1, 90)  ( 44,  1,  6)  ( 50,  1,  1)  ( 47,  1, 97)  ( 48,  1, 93)
  0 -0.1157E-02  0 -0.5378E-03  0 -0.4045E-03  0 -0.3355E-03  0  0.2126E-03
   ( 49,  1, 90)  ( 49,  1, 87)  ( 50,  1, 84)  ( 50,  1, 82)  (  3,  1, 78)
  0  0.1343E-03  0  0.9106E-04  0  0.5628E-04  0  0.2670E-04  0  0.1874E-04
   (  2,  1, 81)  (  3,  1, 74)  (  2,  1, 66)  (  2,  1, 61)  (  2,  1, 59)
  0  0.1412E-04  0 -0.8181E-05  0 -0.7549E-05  0 -0.6179E-05  0 -0.3331E-05
   (  3,  1, 54)  ( 46,  1, 15)  ( 50,  1,  3)  ( 49,  1,  8)  ( 42,  1, 10)
  0 -0.2254E-05  0 -0.1829E-05  0 -0.1016E-05  0  0.7328E-06  1  0.2180E-06
   ( 42,  1,  2)  ( 50,  1,  1)  ( 48,  1,  7)  (  4,  1, 79)  ( 37,  1,  7)

 MAXIMUM RESIDUAL FOR EACH ITERATION (1 INDICATES THE FIRST INNER ITERATION):

    RESIDUAL       RESIDUAL       RESIDUAL       RESIDUAL       RESIDUAL    
   LAYER,ROW,COL  LAYER,ROW,COL  LAYER,ROW,COL  LAYER,ROW,COL  LAYER,ROW,COL
 ---------------------------------------------------------------------------
  1   460.4      0   400.1      0   296.2      0  -245.6      0  -122.6    
   ( 50,  1, 92)  ( 50,  1, 88)  ( 49,  1, 99)  ( 50,  1, 99)  ( 49,  1, 99)
  0  -67.82      0   29.44      0   28.34      0   19.38      0  -12.87    
   ( 49,  1, 99)  ( 50,  1, 99)  ( 50,  1, 99)  ( 49,  1, 99)  ( 50,  1, 99)
  0  -13.49      0  -5.707      0   3.358      0   4.248      0   1.888    
   ( 50,  1, 99)  ( 48,  1, 99)  ( 50,  1, 99)  ( 50,  1, 99)  ( 50,  1, 99)
  0  0.5951      0  -1.239      0 -0.7222      0 -0.3125      0  0.3600    
   ( 50,  1, 98)  ( 50,  1, 99)  ( 50,  1, 99)  ( 50,  1, 98)  ( 50,  1, 99)
  0  0.2707      0  0.1246      0 -0.8583E-01  0 -0.1016      1 -0.5814E-01
   ( 50,  1, 99)  ( 50,  1, 98)  ( 50,  1, 99)  ( 50,  1, 99)  ( 50,  1, 99)


 FLOW MODEL IS TRANSIENT
 FLOW MODEL CONTAINS CONSTANT-HEAD CELLS


 MAXIMUM STEPSIZE DURING WHICH ANY PARTICLE CANNOT MOVE MORE THAN ONE CELL
 =  8.923    (WHEN MIN. R.F.=1)  AT K=   1, I=   1, J=  99

 MAXIMUM STEPSIZE WHICH MEETS STABILITY CRITERION OF THE ADVECTION TERM
 (FOR PURE FINITE-DIFFERENCE OPTION, MIXELM=0) 
 =  8.688    (WHEN MIN. R.F.=1)  AT K=   1, I=   1, J=  99


 TOTAL NUMBER OF POINT SOURCES/SINKS PRESENT IN THE FLOW MODEL =       100

 MAXIMUM STEPSIZE WHICH MEETS STABILITY CRITERION OF THE SINK & SOURCE TERM
 =  122.8    (WHEN MIN. R.F.=1)  AT K=   1, I=   1, J=   1

 MAXIMUM STEPSIZE WHICH MEETS STABILITY CRITERION OF THE DISPERSION TERM
 =  1.983    (WHEN MIN. R.F.=1)  AT K=   1, I=   1, J=  99
     6 CALLS TO GCG PACKAGE FOR TRANSPORT TIME STEP  14 IN FLOW TIME STEP   1 STRESS PERIOD   1
    21 TOTAL ITERATIONS
 
 SOLVING FOR HEAD 


     2 CALLS TO PCG ROUTINE FOR TIME STEP   1 IN STRESS PERIOD    1
    24 TOTAL ITERATIONS

 MAXIMUM HEAD CHANGE FOR EACH ITERATION (1 INDICATES THE FIRST INNER ITERATION):

    HEAD CHANGE    HEAD CHANGE    HEAD CHANGE    HEAD CHANGE    HEAD CHANGE 
   LAYER,ROW,COL  LAYER,ROW,COL  LAYER,ROW,COL  LAYER,ROW,COL  LAYER,ROW,COL
 ---------------------------------------------------------------------------
  1  0.1985E-01  0  0.1034E-01  0  0.1045E-01  0 -0.4616E-02  0 -0.2734E-02
   ( 50,  1, 90)  ( 44,  1,  6)  ( 50,  1,  1)  ( 47,  1, 97)  ( 48,  1, 92)
  0 -0.1055E-02  0 -0.4791E-03  0 -0.3634E-03  0 -0.3030E-03  0  0.1866E-03
   ( 49,  1, 89)  ( 49,  1, 86)  ( 50,  1, 83)  ( 50,  1, 82)  (  3,  1, 78)
  0  0.1230E-03  0  0.8441E-04  0  0.5166E-04  0  0.2478E-04  0  0.1732E-04
   (  2,  1, 81)  (  3,  1, 74)  (  3,  1, 67)  (  2,  1, 61)  (  2,  1, 58)
  0  0.1290E-04  0 -0.7462E-05  0 -0.7031E-05  0 -0.5537E-05  0 -0.3124E-05
   (  3,  1, 53)  ( 46,  1, 14)  ( 50,  1,  2)  ( 49,  1,  8)  ( 42,  1, 10)
  0 -0.2183E-05  0 -0.1716E-05  0 -0.9648E-06  1  0.2702E-06
   ( 43,  1,  2)  ( 45,  1,  1)  ( 48,  1,  6)  ( 11,  1, 67)

 MAXIMUM RESIDUAL FOR EACH ITERATION (1 INDICATES THE FIRST INNER ITERATION):

    RESIDUAL       RESIDUAL       RESIDUAL       RESIDUAL       RESIDUAL    
   LAYER,ROW,COL  LAYER,ROW,COL  LAYER,ROW,COL  LAYER,ROW,COL  LAYER,ROW,COL
 ---------------------------------------------------------------------------
  1   359.6      0   328.1      0  -249.7      0  -214.4      0  -112.5    
   ( 50,  1, 91)  ( 50,  1, 87)  ( 50,  1, 97)  ( 50,  1, 99)  ( 49,  1, 99)
  0  -59.92      0   26.57      0   24.55      0   16.24      0  -11.30    
   ( 49,  1, 99)  ( 50,  1, 99)  ( 50,  1, 99)  ( 49,  1, 99)  ( 50,  1, 99)
  0  -11.62      0  -5.158      0   3.085      0   3.767      0   1.633    
   ( 50,  1, 99)  ( 48,  1, 99)  ( 50,  1, 99)  ( 50,  1, 99)  ( 50,  1, 99)
  0  0.5701      0  -1.115      0 -0.6409      0 -0.2980      0  0.3299    
   ( 50,  1, 98)  ( 50,  1, 99)  ( 50,  1, 99)  ( 50,  1, 98)  ( 50,  1, 99)
  0  0.2486      0  0.1234      0 -0.8155E-01  1 -0.4733E-01
   ( 50,  1, 99)  ( 50,  1, 98)  ( 50,  1, 99)  ( 50,  1, 99)


 FLOW MODEL IS TRANSIENT
 FLOW MODEL CONTAINS CONSTANT-HEAD CELLS


 MAXIMUM STEPSIZE DURING WHICH ANY PARTICLE CANNOT MOVE MORE THAN ONE CELL
 =  8.872    (WHEN MIN. R.F.=1)  AT K=   1, I=   1, J=  99

 MAXIMUM STEPSIZE WHICH MEETS STABILITY CRITERION OF THE ADVECTION TERM
 (FOR PURE FINITE-DIFFERENCE OPTION, MIXELM=0) 
 =  8.644    (WHEN MIN. R.F.=1)  AT K=   1, I=   1, J=  99


 TOTAL NUMBER OF POINT SOURCES/SINKS PRESENT IN THE FLOW MODEL =       100

 MAXIMUM STEPSIZE WHICH MEETS STABILITY CRITERION OF THE SINK & SOURCE TERM
 =  122.8    (WHEN MIN. R.F.=1)  AT K=   1, I=   1, J=   1

 MAXIMUM STEPSIZE WHICH MEETS STABILITY CRITERION OF THE DISPERSION TERM
 =  1.973    (WHEN MIN. R.F.=1)  AT K=   1, I=   1, J=  99
     6 CALLS TO GCG PACKAGE FOR TRANSPORT TIME STEP  15 IN FLOW TIME STEP   1 STRESS PERIOD   1
    21 TOTAL ITERATIONS
 
 SOLVING FOR HEAD 


     2 CALLS TO PCG ROUTINE FOR TIME STEP   1 IN STRESS PERIOD    1
    24 TOTAL ITERATIONS

 MAXIMUM HEAD CHANGE FOR EACH ITERATION (1 INDICATES THE FIRST INNER ITERATION):

    HEAD CHANGE    HEAD CHANGE    HEAD CHANGE    HEAD CHANGE    HEAD CHANGE 
   LAYER,ROW,COL  LAYER,ROW,COL  LAYER,ROW,COL  LAYER,ROW,COL  LAYER,ROW,COL
 ---------------------------------------------------------------------------
  1  0.1630E-01  0  0.8818E-02  0  0.9000E-02  0  0.4133E-02  0 -0.2494E-02
   ( 50,  1, 89)  ( 47,  1, 94)  ( 50,  1,  1)  ( 43,  1,  3)  ( 48,  1, 92)
  0 -0.9550E-03  0 -0.4320E-03  0 -0.3305E-03  0 -0.2752E-03  0  0.1663E-03
   ( 49,  1, 89)  ( 49,  1, 86)  ( 50,  1, 83)  ( 50,  1, 82)  (  3,  1, 77)
  0  0.1119E-03  0  0.7784E-04  0  0.4778E-04  0  0.2314E-04  0  0.1581E-04
   (  2,  1, 81)  (  3,  1, 74)  (  3,  1, 67)  (  1,  1, 68)  (  2,  1, 58)
  0  0.1176E-04  0 -0.6770E-05  0 -0.6457E-05  0 -0.4953E-05  0 -0.2928E-05
   (  3,  1, 53)  ( 47,  1, 15)  ( 50,  1,  2)  ( 49,  1,  8)  ( 42,  1, 10)
  0 -0.2067E-05  0 -0.1627E-05  0 -0.9190E-06  1  0.2460E-06
   ( 43,  1,  2)  ( 45,  1,  1)  ( 48,  1,  6)  (  8,  1, 73)

 MAXIMUM RESIDUAL FOR EACH ITERATION (1 INDICATES THE FIRST INNER ITERATION):

    RESIDUAL       RESIDUAL       RESIDUAL       RESIDUAL       RESIDUAL    
   LAYER,ROW,COL  LAYER,ROW,COL  LAYER,ROW,COL  LAYER,ROW,COL  LAYER,ROW,COL
 ---------------------------------------------------------------------------
  1   282.6      0   267.6      0  -214.5      0  -188.9      0  -103.6    
   ( 50,  1, 91)  ( 50,  1, 86)  ( 50,  1, 97)  ( 50,  1, 99)  ( 49,  1, 99)
  0  -53.53      0   24.20      0   21.60      0   14.44      0  -9.972    
   ( 49,  1, 99)  ( 50,  1, 99)  ( 50,  1, 99)  ( 48,  1, 99)  ( 50,  1, 99)
  0  -10.11      0  -4.655      0   2.808      0   3.368      0   1.459    
   ( 50,  1, 99)  ( 48,  1, 99)  ( 50,  1, 99)  ( 50,  1, 99)  ( 50,  1, 99)
  0  0.5430      0  -1.003      0 -0.5834      0 -0.2797      0  0.2952    
   ( 50,  1, 98)  ( 50,  1, 99)  ( 50,  1, 99)  ( 50,  1, 98)  ( 50,  1, 99)
  0  0.2291      0  0.1170      0 -0.7195E-01  1 -0.4129E-01
   ( 50,  1, 99)  ( 50,  1, 98)  ( 50,  1, 99)  ( 50,  1, 99)


 FLOW MODEL IS TRANSIENT
 FLOW MODEL CONTAINS CONSTANT-HEAD CELLS


 MAXIMUM STEPSIZE DURING WHICH ANY PARTICLE CANNOT MOVE MORE THAN ONE CELL
 =  8.830    (WHEN MIN. R.F.=1)  AT K=   1, I=   1, J=  99

 MAXIMUM STEPSIZE WHICH MEETS STABILITY CRITERION OF THE ADVECTION TERM
 (FOR PURE FINITE-DIFFERENCE OPTION, MIXELM=0) 
 =  8.607    (WHEN MIN. R.F.=1)  AT K=   1, I=   1, J=  99


 TOTAL NUMBER OF POINT SOURCES/SINKS PRESENT IN THE FLOW MODEL =       100

 MAXIMUM STEPSIZE WHICH MEETS STABILITY CRITERION OF THE SINK & SOURCE TERM
 =  122.8    (WHEN MIN. R.F.=1)  AT K=   1, I=   1, J=   1

 MAXIMUM STEPSIZE WHICH MEETS STABILITY CRITERION OF THE DISPERSION TERM
 =  1.965    (WHEN MIN. R.F.=1)  AT K=   1, I=   1, J=  99
     6 CALLS TO GCG PACKAGE FOR TRANSPORT TIME STEP  16 IN FLOW TIME STEP   1 STRESS PERIOD   1
    21 TOTAL ITERATIONS
 
 SOLVING FOR HEAD 


     2 CALLS TO PCG ROUTINE FOR TIME STEP   1 IN STRESS PERIOD    1
    24 TOTAL ITERATIONS

 MAXIMUM HEAD CHANGE FOR EACH ITERATION (1 INDICATES THE FIRST INNER ITERATION):

    HEAD CHANGE    HEAD CHANGE    HEAD CHANGE    HEAD CHANGE    HEAD CHANGE 
   LAYER,ROW,COL  LAYER,ROW,COL  LAYER,ROW,COL  LAYER,ROW,COL  LAYER,ROW,COL
 ---------------------------------------------------------------------------
  1  0.1351E-01  0  0.7549E-02  0  0.7653E-02  0  0.3929E-02  0 -0.2259E-02
   ( 50,  1, 89)  ( 47,  1, 94)  ( 50,  1,  1)  ( 43,  1,  3)  ( 48,  1, 92)
  0 -0.8680E-03  0 -0.3917E-03  0 -0.3012E-03  0 -0.2518E-03  0  0.1494E-03
   ( 49,  1, 88)  ( 49,  1, 85)  ( 50,  1, 82)  ( 50,  1, 81)  (  3,  1, 77)
  0  0.1030E-03  0  0.7116E-04  0  0.4404E-04  0  0.2173E-04  0  0.1474E-04
   (  2,  1, 80)  (  3,  1, 73)  (  4,  1, 68)  (  1,  1, 68)  (  3,  1, 58)
  0  0.1084E-04  0 -0.6177E-05  0 -0.5953E-05  0 -0.4411E-05  0 -0.2696E-05
   (  4,  1, 54)  ( 47,  1, 15)  ( 50,  1,  2)  ( 49,  1,  8)  ( 42,  1, 10)
  0 -0.1955E-05  0 -0.1504E-05  0 -0.8632E-06  1  0.2323E-06
   ( 43,  1,  2)  ( 45,  1,  1)  ( 48,  1,  6)  (  8,  1, 73)

 MAXIMUM RESIDUAL FOR EACH ITERATION (1 INDICATES THE FIRST INNER ITERATION):

    RESIDUAL       RESIDUAL       RESIDUAL       RESIDUAL       RESIDUAL    
   LAYER,ROW,COL  LAYER,ROW,COL  LAYER,ROW,COL  LAYER,ROW,COL  LAYER,ROW,COL
 ---------------------------------------------------------------------------
  1   220.1      0   216.4      0  -183.5      0  -167.4      0  -95.65    
   ( 50,  1, 91)  ( 50,  1, 85)  ( 50,  1, 97)  ( 50,  1, 99)  ( 49,  1, 99)
  0  -48.20      0   22.25      0   19.45      0   12.97      0  -8.887    
   ( 49,  1, 99)  ( 50,  1, 99)  ( 49,  1, 99)  ( 48,  1, 99)  ( 50,  1, 99)
  0  -8.868      0  -4.193      0   2.583      0   3.025      0   1.291    
   ( 50,  1, 99)  ( 48,  1, 99)  ( 50,  1, 99)  ( 50,  1, 99)  ( 50,  1, 99)
  0  0.5144      0 -0.9054      0 -0.5237      0 -0.2604      0  0.2648    
   ( 50,  1, 98)  ( 50,  1, 99)  ( 50,  1, 99)  ( 50,  1, 98)  ( 50,  1, 99)
  0  0.2066      0  0.1095      0 -0.6350E-01  1 -0.3626E-01
   ( 50,  1, 99)  ( 50,  1, 98)  ( 50,  1, 99)  ( 50,  1, 99)


 FLOW MODEL IS TRANSIENT
 FLOW MODEL CONTAINS CONSTANT-HEAD CELLS


 MAXIMUM STEPSIZE DURING WHICH ANY PARTICLE CANNOT MOVE MORE THAN ONE CELL
 =  8.796    (WHEN MIN. R.F.=1)  AT K=   1, I=   1, J=  99

 MAXIMUM STEPSIZE WHICH MEETS STABILITY CRITERION OF THE ADVECTION TERM
 (FOR PURE FINITE-DIFFERENCE OPTION, MIXELM=0) 
 =  8.577    (WHEN MIN. R.F.=1)  AT K=   1, I=   1, J=  99


 TOTAL NUMBER OF POINT SOURCES/SINKS PRESENT IN THE FLOW MODEL =       100

 MAXIMUM STEPSIZE WHICH MEETS STABILITY CRITERION OF THE SINK & SOURCE TERM
 =  122.8    (WHEN MIN. R.F.=1)  AT K=   1, I=   1, J=   1

 MAXIMUM STEPSIZE WHICH MEETS STABILITY CRITERION OF THE DISPERSION TERM
 =  1.958    (WHEN MIN. R.F.=1)  AT K=   1, I=   1, J=  99
     6 CALLS TO GCG PACKAGE FOR TRANSPORT TIME STEP  17 IN FLOW TIME STEP   1 STRESS PERIOD   1
    21 TOTAL ITERATIONS
 
 SOLVING FOR HEAD 


     2 CALLS TO PCG ROUTINE FOR TIME STEP   1 IN STRESS PERIOD    1
    24 TOTAL ITERATIONS

 MAXIMUM HEAD CHANGE FOR EACH ITERATION (1 INDICATES THE FIRST INNER ITERATION):

    HEAD CHANGE    HEAD CHANGE    HEAD CHANGE    HEAD CHANGE    HEAD CHANGE 
   LAYER,ROW,COL  LAYER,ROW,COL  LAYER,ROW,COL  LAYER,ROW,COL  LAYER,ROW,COL
 ---------------------------------------------------------------------------
  1  0.1119E-01  0  0.6436E-02  0  0.6410E-02  0  0.3717E-02  0 -0.2029E-02
   ( 50,  1, 88)  ( 47,  1, 93)  ( 50,  1,  1)  ( 43,  1,  3)  ( 48,  1, 91)
  0 -0.7882E-03  0 -0.3562E-03  0 -0.2766E-03  0 -0.2323E-03  0 -0.1351E-03
   ( 49,  1, 88)  ( 42,  1, 93)  ( 50,  1, 82)  ( 50,  1, 81)  ( 47,  1, 81)
  0  0.9500E-04  0  0.6565E-04  0  0.4142E-04  0  0.2059E-04  0  0.1380E-04
   (  2,  1, 80)  (  3,  1, 73)  (  2,  1, 76)  (  1,  1, 68)  (  3,  1, 57)
  0  0.1006E-04  0 -0.5657E-05  0 -0.5499E-05  0 -0.3954E-05  0 -0.2489E-05
   (  4,  1, 53)  ( 47,  1, 15)  ( 50,  1,  2)  ( 49,  1,  8)  ( 42,  1, 10)
  0 -0.1852E-05  0 -0.1397E-05  0 -0.8125E-06  1  0.2227E-06
   ( 43,  1,  2)  ( 45,  1,  1)  ( 48,  1,  6)  (  8,  1, 73)

 MAXIMUM RESIDUAL FOR EACH ITERATION (1 INDICATES THE FIRST INNER ITERATION):

    RESIDUAL       RESIDUAL       RESIDUAL       RESIDUAL       RESIDUAL    
   LAYER,ROW,COL  LAYER,ROW,COL  LAYER,ROW,COL  LAYER,ROW,COL  LAYER,ROW,COL
 ---------------------------------------------------------------------------
  1   172.7      0   175.8      0  -155.7      0  -148.9      0  -88.61    
   ( 50,  1, 90)  ( 50,  1, 85)  ( 50,  1, 97)  ( 50,  1, 99)  ( 49,  1, 99)
  0  -43.77      0   20.62      0   17.91      0   11.76      0  -7.992    
   ( 49,  1, 99)  ( 50,  1, 99)  ( 49,  1, 99)  ( 48,  1, 99)  ( 50,  1, 99)
  0  -7.852      0  -3.788      0   2.379      0   2.735      0   1.154    
   ( 50,  1, 99)  ( 48,  1, 99)  ( 50,  1, 99)  ( 50,  1, 99)  ( 50,  1, 99)
  0  0.4871      0 -0.8228      0 -0.4747      0 -0.2426      0  0.2385    
   ( 50,  1, 98)  ( 50,  1, 99)  ( 50,  1, 99)  ( 50,  1, 98)  ( 50,  1, 99)
  0  0.1874      0  0.1025      0 -0.5624E-01  1 -0.3195E-01
   ( 50,  1, 99)  ( 50,  1, 98)  ( 50,  1, 99)  ( 50,  1, 99)


 FLOW MODEL IS TRANSIENT
 FLOW MODEL CONTAINS CONSTANT-HEAD CELLS


 MAXIMUM STEPSIZE DURING WHICH ANY PARTICLE CANNOT MOVE MORE THAN ONE CELL
 =  8.768    (WHEN MIN. R.F.=1)  AT K=   1, I=   1, J=  99

 MAXIMUM STEPSIZE WHICH MEETS STABILITY CRITERION OF THE ADVECTION TERM
 (FOR PURE FINITE-DIFFERENCE OPTION, MIXELM=0) 
 =  8.553    (WHEN MIN. R.F.=1)  AT K=   1, I=   1, J=  99


 TOTAL NUMBER OF POINT SOURCES/SINKS PRESENT IN THE FLOW MODEL =       100

 MAXIMUM STEPSIZE WHICH MEETS STABILITY CRITERION OF THE SINK & SOURCE TERM
 =  122.8    (WHEN MIN. R.F.=1)  AT K=   1, I=   1, J=   1

 MAXIMUM STEPSIZE WHICH MEETS STABILITY CRITERION OF THE DISPERSION TERM
 =  1.953    (WHEN MIN. R.F.=1)  AT K=   1, I=   1, J=  99
     6 CALLS TO GCG PACKAGE FOR TRANSPORT TIME STEP  18 IN FLOW TIME STEP   1 STRESS PERIOD   1
    20 TOTAL ITERATIONS
 
 SOLVING FOR HEAD 


     2 CALLS TO PCG ROUTINE FOR TIME STEP   1 IN STRESS PERIOD    1
    24 TOTAL ITERATIONS

 MAXIMUM HEAD CHANGE FOR EACH ITERATION (1 INDICATES THE FIRST INNER ITERATION):

    HEAD CHANGE    HEAD CHANGE    HEAD CHANGE    HEAD CHANGE    HEAD CHANGE 
   LAYER,ROW,COL  LAYER,ROW,COL  LAYER,ROW,COL  LAYER,ROW,COL  LAYER,ROW,COL
 ---------------------------------------------------------------------------
  1  0.9419E-02  0  0.5441E-02  0  0.5269E-02  0  0.3481E-02  0 -0.1823E-02
   ( 50,  1, 88)  ( 47,  1, 93)  ( 50,  1,  1)  ( 43,  1,  3)  ( 48,  1, 91)
  0 -0.7305E-03  0 -0.3433E-03  0 -0.2554E-03  0 -0.2153E-03  0 -0.1260E-03
   ( 45,  1, 93)  ( 42,  1, 93)  ( 50,  1, 81)  ( 50,  1, 81)  ( 47,  1, 81)
  0  0.8779E-04  0  0.6070E-04  0  0.3921E-04  0  0.1959E-04  0  0.1299E-04
   (  2,  1, 80)  (  4,  1, 74)  (  2,  1, 76)  (  2,  1, 69)  (  3,  1, 57)
  0  0.9370E-05  0  0.5384E-05  0 -0.5084E-05  0 -0.3561E-05  0 -0.2307E-05
   (  4,  1, 53)  (  5,  1, 47)  ( 50,  1,  1)  ( 49,  1,  8)  ( 43,  1, 10)
  0 -0.1756E-05  0 -0.1308E-05  0 -0.7648E-06  1  0.2151E-06
   ( 44,  1,  2)  ( 47,  1,  7)  ( 48,  1,  6)  (  8,  1, 73)

 MAXIMUM RESIDUAL FOR EACH ITERATION (1 INDICATES THE FIRST INNER ITERATION):

    RESIDUAL       RESIDUAL       RESIDUAL       RESIDUAL       RESIDUAL    
   LAYER,ROW,COL  LAYER,ROW,COL  LAYER,ROW,COL  LAYER,ROW,COL  LAYER,ROW,COL
 ---------------------------------------------------------------------------
  1   135.4      0   141.1      0  -130.7      0  -132.5      0  -82.25    
   ( 50,  1, 90)  ( 50,  1, 84)  ( 50,  1, 97)  ( 50,  1, 99)  ( 49,  1, 99)
  0  -40.03      0   19.24      0   16.63      0   10.76      0  -7.252    
   ( 49,  1, 99)  ( 50,  1, 99)  ( 49,  1, 99)  ( 48,  1, 99)  ( 50,  1, 99)
  0  -7.017      0  -3.436      0   2.196      0   2.488      0   1.039    
   ( 50,  1, 99)  ( 48,  1, 99)  ( 50,  1, 99)  ( 50,  1, 99)  ( 50,  1, 99)
  0  0.4614      0 -0.7511      0 -0.4332      0 -0.2264      0  0.2153    
   ( 50,  1, 98)  ( 50,  1, 99)  ( 50,  1, 99)  ( 50,  1, 98)  ( 50,  1, 99)
  0  0.1706      0  0.9599E-01  0 -0.4986E-01  1 -0.2820E-01
   ( 50,  1, 99)  ( 50,  1, 98)  ( 50,  1, 99)  ( 50,  1, 99)


 FLOW MODEL IS TRANSIENT
 FLOW MODEL CONTAINS CONSTANT-HEAD CELLS


 MAXIMUM STEPSIZE DURING WHICH ANY PARTICLE CANNOT MOVE MORE THAN ONE CELL
 =  8.745    (WHEN MIN. R.F.=1)  AT K=   1, I=   1, J=  99

 MAXIMUM STEPSIZE WHICH MEETS STABILITY CRITERION OF THE ADVECTION TERM
 (FOR PURE FINITE-DIFFERENCE OPTION, MIXELM=0) 
 =  8.533    (WHEN MIN. R.F.=1)  AT K=   1, I=   1, J=  99


 TOTAL NUMBER OF POINT SOURCES/SINKS PRESENT IN THE FLOW MODEL =       100

 MAXIMUM STEPSIZE WHICH MEETS STABILITY CRITERION OF THE SINK & SOURCE TERM
 =  122.8    (WHEN MIN. R.F.=1)  AT K=   1, I=   1, J=   1

 MAXIMUM STEPSIZE WHICH MEETS STABILITY CRITERION OF THE DISPERSION TERM
 =  1.948    (WHEN MIN. R.F.=1)  AT K=   1, I=   1, J=  99
     5 CALLS TO GCG PACKAGE FOR TRANSPORT TIME STEP  19 IN FLOW TIME STEP   1 STRESS PERIOD   1
    18 TOTAL ITERATIONS
 
 SOLVING FOR HEAD 


     2 CALLS TO PCG ROUTINE FOR TIME STEP   1 IN STRESS PERIOD    1
    24 TOTAL ITERATIONS

 MAXIMUM HEAD CHANGE FOR EACH ITERATION (1 INDICATES THE FIRST INNER ITERATION):

    HEAD CHANGE    HEAD CHANGE    HEAD CHANGE    HEAD CHANGE    HEAD CHANGE 
   LAYER,ROW,COL  LAYER,ROW,COL  LAYER,ROW,COL  LAYER,ROW,COL  LAYER,ROW,COL
 ---------------------------------------------------------------------------
  1  0.7970E-02  0  0.4548E-02  0  0.4242E-02  0  0.3211E-02  0 -0.1611E-02
   ( 50,  1, 88)  ( 47,  1, 92)  ( 50,  1,  1)  ( 44,  1,  4)  ( 48,  1, 91)
  0 -0.6849E-03  0 -0.3324E-03  0 -0.2366E-03  0 -0.2010E-03  0 -0.1183E-03
   ( 45,  1, 92)  ( 42,  1, 93)  ( 50,  1, 81)  ( 50,  1, 80)  ( 47,  1, 80)
  0  0.8146E-04  0  0.5705E-04  0  0.3713E-04  0  0.1876E-04  0  0.1223E-04
   (  2,  1, 80)  (  2,  1, 84)  (  2,  1, 76)  (  2,  1, 69)  (  3,  1, 57)
  0  0.8756E-05  0  0.5163E-05  0 -0.4711E-05  0 -0.3223E-05  0 -0.2150E-05
   (  4,  1, 52)  (  5,  1, 47)  ( 50,  1,  1)  ( 49,  1,  8)  ( 43,  1, 10)
  0 -0.1681E-05  0 -0.1246E-05  0 -0.7251E-06  1  0.2084E-06
   ( 44,  1,  2)  ( 47,  1,  7)  ( 49,  1,  6)  (  8,  1, 73)

 MAXIMUM RESIDUAL FOR EACH ITERATION (1 INDICATES THE FIRST INNER ITERATION):

    RESIDUAL       RESIDUAL       RESIDUAL       RESIDUAL       RESIDUAL    
   LAYER,ROW,COL  LAYER,ROW,COL  LAYER,ROW,COL  LAYER,ROW,COL  LAYER,ROW,COL
 ---------------------------------------------------------------------------
  1   106.4      0   112.2      0  -108.3      0  -117.6      0  -76.45    
   ( 50,  1, 90)  ( 50,  1, 84)  ( 50,  1, 97)  ( 50,  1, 99)  ( 49,  1, 99)
  0  -36.86      0   18.04      0   15.54      0   9.922      0  -6.642    
   ( 49,  1, 99)  ( 50,  1, 99)  ( 49,  1, 99)  ( 48,  1, 99)  ( 50,  1, 99)
  0  -6.330      0  -3.132      0   2.033      0   2.277      0  0.9425    
   ( 50,  1, 99)  ( 48,  1, 99)  ( 50,  1, 99)  ( 50,  1, 99)  ( 50,  1, 99)
  0  0.4377      0 -0.6890      0 -0.3982      0 -0.2118      0  0.1951    
   ( 50,  1, 98)  ( 50,  1, 99)  ( 50,  1, 99)  ( 50,  1, 98)  ( 50,  1, 99)
  0  0.1559      0  0.9008E-01  0 -0.4437E-01  1 -0.2500E-01
   ( 50,  1, 99)  ( 50,  1, 98)  ( 50,  1, 99)  ( 50,  1, 99)


 FLOW MODEL IS TRANSIENT
 FLOW MODEL CONTAINS CONSTANT-HEAD CELLS


 MAXIMUM STEPSIZE DURING WHICH ANY PARTICLE CANNOT MOVE MORE THAN ONE CELL
 =  8.727    (WHEN MIN. R.F.=1)  AT K=   1, I=   1, J=  99

 MAXIMUM STEPSIZE WHICH MEETS STABILITY CRITERION OF THE ADVECTION TERM
 (FOR PURE FINITE-DIFFERENCE OPTION, MIXELM=0) 
 =  8.517    (WHEN MIN. R.F.=1)  AT K=   1, I=   1, J=  99


 TOTAL NUMBER OF POINT SOURCES/SINKS PRESENT IN THE FLOW MODEL =       100

 MAXIMUM STEPSIZE WHICH MEETS STABILITY CRITERION OF THE SINK & SOURCE TERM
 =  122.8    (WHEN MIN. R.F.=1)  AT K=   1, I=   1, J=   1

 MAXIMUM STEPSIZE WHICH MEETS STABILITY CRITERION OF THE DISPERSION TERM
 =  1.944    (WHEN MIN. R.F.=1)  AT K=   1, I=   1, J=  99
     5 CALLS TO GCG PACKAGE FOR TRANSPORT TIME STEP  20 IN FLOW TIME STEP   1 STRESS PERIOD   1
    18 TOTAL ITERATIONS
 
 SOLVING FOR HEAD 


     2 CALLS TO PCG ROUTINE FOR TIME STEP   1 IN STRESS PERIOD    1
    24 TOTAL ITERATIONS

 MAXIMUM HEAD CHANGE FOR EACH ITERATION (1 INDICATES THE FIRST INNER ITERATION):

    HEAD CHANGE    HEAD CHANGE    HEAD CHANGE    HEAD CHANGE    HEAD CHANGE 
   LAYER,ROW,COL  LAYER,ROW,COL  LAYER,ROW,COL  LAYER,ROW,COL  LAYER,ROW,COL
 ---------------------------------------------------------------------------
  1  0.6846E-02  0  0.3814E-02  0  0.3339E-02  0  0.2903E-02  0  0.1534E-02
   ( 50,  1, 87)  ( 47,  1, 92)  ( 50,  1,  1)  ( 44,  1,  4)  ( 49,  1,  1)
  0 -0.6431E-03  0 -0.3226E-03  0 -0.2205E-03  0 -0.1890E-03  0 -0.1118E-03
   ( 45,  1, 92)  ( 42,  1, 93)  ( 50,  1, 80)  ( 50,  1, 80)  ( 47,  1, 80)
  0  0.7594E-04  0  0.5387E-04  0  0.3517E-04  0  0.1798E-04  0  0.1159E-04
   (  3,  1, 81)  (  2,  1, 83)  (  3,  1, 77)  (  2,  1, 69)  (  4,  1, 57)
  0  0.8213E-05  0  0.4970E-05  0 -0.4373E-05  0 -0.2935E-05  0 -0.2009E-05
   (  5,  1, 53)  (  5,  1, 46)  ( 50,  1,  1)  ( 49,  1,  8)  ( 43,  1, 10)
  0 -0.1616E-05  0 -0.1194E-05  0 -0.6951E-06  1  0.2041E-06
   ( 44,  1,  2)  ( 47,  1,  7)  ( 49,  1,  6)  (  8,  1, 73)

 MAXIMUM RESIDUAL FOR EACH ITERATION (1 INDICATES THE FIRST INNER ITERATION):

    RESIDUAL       RESIDUAL       RESIDUAL       RESIDUAL       RESIDUAL    
   LAYER,ROW,COL  LAYER,ROW,COL  LAYER,ROW,COL  LAYER,ROW,COL  LAYER,ROW,COL
 ---------------------------------------------------------------------------
  1   84.22      0   89.40      0  -88.29      0  -103.8      0  -71.05    
   ( 50,  1, 89)  ( 50,  1, 83)  ( 50,  1, 97)  ( 50,  1, 99)  ( 49,  1, 99)
  0  -34.12      0   17.01      0   14.63      0   9.211      0  -6.147    
   ( 49,  1, 99)  ( 50,  1, 99)  ( 49,  1, 99)  ( 48,  1, 99)  ( 50,  1, 99)
  0  -5.755      0  -2.868      0   1.891      0   2.094      0  0.8574    
   ( 50,  1, 99)  ( 48,  1, 99)  ( 50,  1, 99)  ( 50,  1, 99)  ( 50,  1, 99)
  0  0.4158      0 -0.6353      0 -0.3679      0 -0.1992      0  0.1781    
   ( 50,  1, 98)  ( 50,  1, 99)  ( 50,  1, 99)  ( 50,  1, 98)  ( 50,  1, 99)
  0  0.1432      0  0.8508E-01  0 -0.4070E-01  1 -0.2254E-01
   ( 50,  1, 99)  ( 50,  1, 98)  ( 49,  1, 99)  ( 50,  1, 99)


 FLOW MODEL IS TRANSIENT
 FLOW MODEL CONTAINS CONSTANT-HEAD CELLS


 MAXIMUM STEPSIZE DURING WHICH ANY PARTICLE CANNOT MOVE MORE THAN ONE CELL
 =  8.713    (WHEN MIN. R.F.=1)  AT K=   1, I=   1, J=  99

 MAXIMUM STEPSIZE WHICH MEETS STABILITY CRITERION OF THE ADVECTION TERM
 (FOR PURE FINITE-DIFFERENCE OPTION, MIXELM=0) 
 =  8.505    (WHEN MIN. R.F.=1)  AT K=   1, I=   1, J=  99


 TOTAL NUMBER OF POINT SOURCES/SINKS PRESENT IN THE FLOW MODEL =       100

 MAXIMUM STEPSIZE WHICH MEETS STABILITY CRITERION OF THE SINK & SOURCE TERM
 =  122.8    (WHEN MIN. R.F.=1)  AT K=   1, I=   1, J=   1

 MAXIMUM STEPSIZE WHICH MEETS STABILITY CRITERION OF THE DISPERSION TERM
 =  1.942    (WHEN MIN. R.F.=1)  AT K=   1, I=   1, J=  99
     5 CALLS TO GCG PACKAGE FOR TRANSPORT TIME STEP  21 IN FLOW TIME STEP   1 STRESS PERIOD   1
    18 TOTAL ITERATIONS
 
 SOLVING FOR HEAD 


     2 CALLS TO PCG ROUTINE FOR TIME STEP   1 IN STRESS PERIOD    1
    24 TOTAL ITERATIONS

 MAXIMUM HEAD CHANGE FOR EACH ITERATION (1 INDICATES THE FIRST INNER ITERATION):

    HEAD CHANGE    HEAD CHANGE    HEAD CHANGE    HEAD CHANGE    HEAD CHANGE 
   LAYER,ROW,COL  LAYER,ROW,COL  LAYER,ROW,COL  LAYER,ROW,COL  LAYER,ROW,COL
 ---------------------------------------------------------------------------
  1  0.5968E-02  0  0.3179E-02  0  0.2571E-02  0  0.2560E-02  0  0.1528E-02
   ( 50,  1, 87)  ( 47,  1, 92)  ( 50,  1,  1)  ( 44,  1,  4)  ( 49,  1,  1)
  0 -0.5985E-03  0 -0.3132E-03  0 -0.2057E-03  0 -0.1780E-03  0 -0.1061E-03
   ( 45,  1, 92)  ( 42,  1, 93)  ( 50,  1, 80)  ( 50,  1, 80)  ( 47,  1, 80)
  0  0.7141E-04  0  0.5115E-04  0  0.3344E-04  0  0.1731E-04  0  0.1100E-04
   (  3,  1, 81)  (  2,  1, 83)  (  3,  1, 76)  (  2,  1, 69)  (  4,  1, 57)
  0  0.7710E-05  0  0.4783E-05  0 -0.4059E-05  0 -0.2702E-05  0 -0.1879E-05
   (  5,  1, 52)  (  6,  1, 47)  ( 50,  1,  1)  ( 38,  1,  3)  ( 43,  1, 10)
  0 -0.1559E-05  0 -0.1146E-05  0 -0.6669E-06  1  0.1977E-06
   ( 43,  1,  1)  ( 47,  1,  7)  ( 49,  1,  6)  (  8,  1, 73)

 MAXIMUM RESIDUAL FOR EACH ITERATION (1 INDICATES THE FIRST INNER ITERATION):

    RESIDUAL       RESIDUAL       RESIDUAL       RESIDUAL       RESIDUAL    
   LAYER,ROW,COL  LAYER,ROW,COL  LAYER,ROW,COL  LAYER,ROW,COL  LAYER,ROW,COL
 ---------------------------------------------------------------------------
  1   67.76      0   70.23      0  -70.72      0  -90.68      0  -65.87    
   ( 50,  1, 89)  ( 50,  1, 83)  ( 50,  1, 97)  ( 50,  1, 99)  ( 49,  1, 99)
  0  -31.93      0   16.10      0   13.85      0   8.611      0  -5.734    
   ( 48,  1, 99)  ( 50,  1, 99)  ( 49,  1, 99)  ( 48,  1, 99)  ( 50,  1, 99)
  0  -5.276      0  -2.643      0   1.765      0   1.937      0  0.7841    
   ( 50,  1, 99)  ( 48,  1, 99)  ( 50,  1, 99)  ( 50,  1, 99)  ( 50,  1, 99)
  0  0.3958      0 -0.5881      0 -0.3417      0 -0.1880      0  0.1631    
   ( 50,  1, 98)  ( 50,  1, 99)  ( 50,  1, 99)  ( 50,  1, 98)  ( 50,  1, 99)
  0  0.1321      0  0.8059E-01  0 -0.3733E-01  1 -0.2042E-01
   ( 50,  1, 99)  ( 50,  1, 98)  ( 49,  1, 99)  ( 50,  1, 99)


 FLOW MODEL IS TRANSIENT
 FLOW MODEL CONTAINS CONSTANT-HEAD CELLS


 MAXIMUM STEPSIZE DURING WHICH ANY PARTICLE CANNOT MOVE MORE THAN ONE CELL
 =  8.702    (WHEN MIN. R.F.=1)  AT K=   1, I=   1, J=  99

 MAXIMUM STEPSIZE WHICH MEETS STABILITY CRITERION OF THE ADVECTION TERM
 (FOR PURE FINITE-DIFFERENCE OPTION, MIXELM=0) 
 =  8.495    (WHEN MIN. R.F.=1)  AT K=   1, I=   1, J=  99


 TOTAL NUMBER OF POINT SOURCES/SINKS PRESENT IN THE FLOW MODEL =       100

 MAXIMUM STEPSIZE WHICH MEETS STABILITY CRITERION OF THE SINK & SOURCE TERM
 =  122.8    (WHEN MIN. R.F.=1)  AT K=   1, I=   1, J=   1

 MAXIMUM STEPSIZE WHICH MEETS STABILITY CRITERION OF THE DISPERSION TERM
 =  1.939    (WHEN MIN. R.F.=1)  AT K=   1, I=   1, J=  99
     5 CALLS TO GCG PACKAGE FOR TRANSPORT TIME STEP  22 IN FLOW TIME STEP   1 STRESS PERIOD   1
    18 TOTAL ITERATIONS
 
 SOLVING FOR HEAD 


     2 CALLS TO PCG ROUTINE FOR TIME STEP   1 IN STRESS PERIOD    1
    24 TOTAL ITERATIONS

 MAXIMUM HEAD CHANGE FOR EACH ITERATION (1 INDICATES THE FIRST INNER ITERATION):

    HEAD CHANGE    HEAD CHANGE    HEAD CHANGE    HEAD CHANGE    HEAD CHANGE 
   LAYER,ROW,COL  LAYER,ROW,COL  LAYER,ROW,COL  LAYER,ROW,COL  LAYER,ROW,COL
 ---------------------------------------------------------------------------
  1  0.5262E-02  0  0.2654E-02  0  0.1941E-02  0  0.2195E-02  0  0.1499E-02
   ( 50,  1, 87)  ( 47,  1, 91)  ( 50,  1,  1)  ( 44,  1,  4)  ( 49,  1,  1)
  0 -0.5499E-03  0 -0.3039E-03  0 -0.1920E-03  0 -0.1686E-03  0 -0.1011E-03
   ( 45,  1, 92)  ( 42,  1, 93)  ( 50,  1, 79)  ( 50,  1, 79)  ( 47,  1, 80)
  0  0.6746E-04  0  0.4850E-04  0  0.3194E-04  0  0.1671E-04  0  0.1055E-04
   (  2,  1, 79)  (  2,  1, 83)  (  3,  1, 76)  (  2,  1, 69)  (  2,  1, 63)
  0  0.7266E-05  0  0.4581E-05  0 -0.3765E-05  0 -0.2560E-05  0 -0.1760E-05
   (  2,  1, 58)  (  6,  1, 47)  ( 50,  1,  1)  ( 37,  1,  2)  ( 43,  1, 10)
  0 -0.1508E-05  0 -0.1104E-05  0 -0.6406E-06  1  0.1933E-06
   ( 43,  1,  1)  ( 47,  1,  7)  ( 49,  1,  6)  (  8,  1, 72)

 MAXIMUM RESIDUAL FOR EACH ITERATION (1 INDICATES THE FIRST INNER ITERATION):

    RESIDUAL       RESIDUAL       RESIDUAL       RESIDUAL       RESIDUAL    
   LAYER,ROW,COL  LAYER,ROW,COL  LAYER,ROW,COL  LAYER,ROW,COL  LAYER,ROW,COL
 ---------------------------------------------------------------------------
  1   55.30      0   55.83      0   55.67      0  -78.25      0  -60.83    
   ( 50,  1, 89)  ( 50,  1, 82)  ( 49,  1, 99)  ( 50,  1, 99)  ( 49,  1, 99)
  0  -30.20      0   15.27      0   13.17      0   8.088      0  -5.395    
   ( 48,  1, 99)  ( 50,  1, 99)  ( 49,  1, 99)  ( 48,  1, 99)  ( 50,  1, 99)
  0  -4.868      0  -2.447      0   1.656      0   1.799      0  0.7183    
   ( 50,  1, 99)  ( 48,  1, 99)  ( 50,  1, 99)  ( 50,  1, 99)  ( 50,  1, 99)
  0 -0.3813      0 -0.5465      0 -0.3183      0 -0.1781      0  0.1499    
   ( 49,  1, 99)  ( 50,  1, 99)  ( 50,  1, 99)  ( 50,  1, 98)  ( 50,  1, 99)
  0  0.1222      0  0.7662E-01  0 -0.3416E-01  1 -0.1867E-01
   ( 50,  1, 99)  ( 50,  1, 98)  ( 49,  1, 99)  ( 50,  1, 99)


 FLOW MODEL IS TRANSIENT
 FLOW MODEL CONTAINS CONSTANT-HEAD CELLS


 MAXIMUM STEPSIZE DURING WHICH ANY PARTICLE CANNOT MOVE MORE THAN ONE CELL
 =  8.694    (WHEN MIN. R.F.=1)  AT K=   1, I=   1, J=  99

 MAXIMUM STEPSIZE WHICH MEETS STABILITY CRITERION OF THE ADVECTION TERM
 (FOR PURE FINITE-DIFFERENCE OPTION, MIXELM=0) 
 =  8.488    (WHEN MIN. R.F.=1)  AT K=   1, I=   1, J=  99


 TOTAL NUMBER OF POINT SOURCES/SINKS PRESENT IN THE FLOW MODEL =       100

 MAXIMUM STEPSIZE WHICH MEETS STABILITY CRITERION OF THE SINK & SOURCE TERM
 =  122.8    (WHEN MIN. R.F.=1)  AT K=   1, I=   1, J=   1

 MAXIMUM STEPSIZE WHICH MEETS STABILITY CRITERION OF THE DISPERSION TERM
 =  1.938    (WHEN MIN. R.F.=1)  AT K=   1, I=   1, J=  99
     5 CALLS TO GCG PACKAGE FOR TRANSPORT TIME STEP  23 IN FLOW TIME STEP   1 STRESS PERIOD   1
    18 TOTAL ITERATIONS
 
 SOLVING FOR HEAD 


     2 CALLS TO PCG ROUTINE FOR TIME STEP   1 IN STRESS PERIOD    1
    24 TOTAL ITERATIONS

 MAXIMUM HEAD CHANGE FOR EACH ITERATION (1 INDICATES THE FIRST INNER ITERATION):

    HEAD CHANGE    HEAD CHANGE    HEAD CHANGE    HEAD CHANGE    HEAD CHANGE 
   LAYER,ROW,COL  LAYER,ROW,COL  LAYER,ROW,COL  LAYER,ROW,COL  LAYER,ROW,COL
 ---------------------------------------------------------------------------
  1  0.4740E-02  0  0.2239E-02  0  0.1439E-02  0  0.1825E-02  0  0.1441E-02
   ( 50,  1, 86)  ( 47,  1, 91)  ( 50,  1,  1)  ( 44,  1,  4)  ( 49,  1,  1)
  0  0.5262E-03  0 -0.2938E-03  0 -0.1792E-03  0 -0.1602E-03  0  0.9747E-04
   ( 43,  1,  3)  ( 42,  1, 93)  ( 50,  1, 79)  ( 50,  1, 79)  (  1,  1, 87)
  0  0.6418E-04  0  0.4617E-04  0  0.3065E-04  0  0.1627E-04  0  0.1031E-04
   (  3,  1, 80)  (  2,  1, 83)  (  3,  1, 76)  (  2,  1, 68)  (  2,  1, 63)
  0  0.6998E-05  0  0.4409E-05  0 -0.3492E-05  0 -0.2435E-05  0 -0.1669E-05
   (  2,  1, 58)  (  1,  1, 54)  ( 50,  1,  1)  ( 37,  1,  2)  ( 41,  1,  2)
  0 -0.1460E-05  0 -0.1074E-05  0 -0.6240E-06  1  0.1863E-06
   ( 43,  1,  1)  ( 48,  1,  7)  ( 47,  1,  1)  (  8,  1, 72)

 MAXIMUM RESIDUAL FOR EACH ITERATION (1 INDICATES THE FIRST INNER ITERATION):

    RESIDUAL       RESIDUAL       RESIDUAL       RESIDUAL       RESIDUAL    
   LAYER,ROW,COL  LAYER,ROW,COL  LAYER,ROW,COL  LAYER,ROW,COL  LAYER,ROW,COL
 ---------------------------------------------------------------------------
  1   45.94      0   43.95      0   44.08      0  -66.44      0  -55.79    
   ( 50,  1, 89)  ( 50,  1, 82)  ( 49,  1, 99)  ( 50,  1, 99)  ( 49,  1, 99)
  0  -28.56      0   14.52      0   12.57      0   7.646      0  -5.109    
   ( 48,  1, 99)  ( 50,  1, 99)  ( 49,  1, 99)  ( 47,  1, 99)  ( 50,  1, 99)
  0  -4.522      0  -2.318      0   1.560      0   1.680      0  0.6610    
   ( 50,  1, 99)  ( 47,  1, 99)  ( 50,  1, 99)  ( 50,  1, 99)  ( 50,  1, 99)
  0 -0.3768      0 -0.5099      0 -0.2977      0 -0.1695      0  0.1386    
   ( 49,  1, 99)  ( 50,  1, 99)  ( 50,  1, 99)  ( 50,  1, 98)  ( 50,  1, 99)
  0  0.1137      0  0.7325E-01  0 -0.3137E-01  1 -0.1722E-01
   ( 50,  1, 99)  ( 50,  1, 98)  ( 49,  1, 99)  ( 50,  1, 99)


 FLOW MODEL IS TRANSIENT
 FLOW MODEL CONTAINS CONSTANT-HEAD CELLS


 MAXIMUM STEPSIZE DURING WHICH ANY PARTICLE CANNOT MOVE MORE THAN ONE CELL
 =  8.688    (WHEN MIN. R.F.=1)  AT K=   1, I=   1, J=  99

 MAXIMUM STEPSIZE WHICH MEETS STABILITY CRITERION OF THE ADVECTION TERM
 (FOR PURE FINITE-DIFFERENCE OPTION, MIXELM=0) 
 =  8.483    (WHEN MIN. R.F.=1)  AT K=   1, I=   1, J=  99


 TOTAL NUMBER OF POINT SOURCES/SINKS PRESENT IN THE FLOW MODEL =       100

 MAXIMUM STEPSIZE WHICH MEETS STABILITY CRITERION OF THE SINK & SOURCE TERM
 =  122.8    (WHEN MIN. R.F.=1)  AT K=   1, I=   1, J=   1

 MAXIMUM STEPSIZE WHICH MEETS STABILITY CRITERION OF THE DISPERSION TERM
 =  1.937    (WHEN MIN. R.F.=1)  AT K=   1, I=   1, J=  99
     5 CALLS TO GCG PACKAGE FOR TRANSPORT TIME STEP  24 IN FLOW TIME STEP   1 STRESS PERIOD   1
    18 TOTAL ITERATIONS
 
 SOLVING FOR HEAD 


     2 CALLS TO PCG ROUTINE FOR TIME STEP   1 IN STRESS PERIOD    1
    24 TOTAL ITERATIONS

 MAXIMUM HEAD CHANGE FOR EACH ITERATION (1 INDICATES THE FIRST INNER ITERATION):

    HEAD CHANGE    HEAD CHANGE    HEAD CHANGE    HEAD CHANGE    HEAD CHANGE 
   LAYER,ROW,COL  LAYER,ROW,COL  LAYER,ROW,COL  LAYER,ROW,COL  LAYER,ROW,COL
 ---------------------------------------------------------------------------
  1  0.4318E-02  0  0.1902E-02  0  0.1198E-02  0  0.1471E-02  0  0.1350E-02
   ( 50,  1, 86)  ( 47,  1, 91)  ( 43,  1, 94)  ( 44,  1,  4)  ( 49,  1,  1)
  0  0.5465E-03  0 -0.2822E-03  0 -0.1691E-03  0 -0.1519E-03  0  0.9505E-04
   ( 43,  1,  3)  ( 42,  1, 93)  ( 43,  1, 87)  ( 50,  1, 79)  (  1,  1, 87)
  0  0.6143E-04  0  0.4400E-04  0  0.2947E-04  0  0.1591E-04  0  0.1008E-04
   (  3,  1, 80)  (  2,  1, 83)  (  3,  1, 75)  (  2,  1, 68)  (  2,  1, 63)
  0  0.6748E-05  0  0.4282E-05  0 -0.3236E-05  0 -0.2314E-05  0 -0.1600E-05
   (  3,  1, 58)  (  1,  1, 54)  ( 50,  1,  1)  ( 37,  1,  2)  ( 41,  1,  2)
  0 -0.1413E-05  0 -0.1046E-05  0 -0.6133E-06  1  0.1719E-06
   ( 43,  1,  1)  ( 48,  1,  7)  ( 48,  1,  1)  (  8,  1, 72)

 MAXIMUM RESIDUAL FOR EACH ITERATION (1 INDICATES THE FIRST INNER ITERATION):

    RESIDUAL       RESIDUAL       RESIDUAL       RESIDUAL       RESIDUAL    
   LAYER,ROW,COL  LAYER,ROW,COL  LAYER,ROW,COL  LAYER,ROW,COL  LAYER,ROW,COL
 ---------------------------------------------------------------------------
  1   38.94      0   35.22      0   34.64      0  -55.40      0  -50.70    
   ( 50,  1, 89)  ( 50,  1, 81)  ( 49,  1, 99)  ( 50,  1, 99)  ( 49,  1, 99)
  0  -26.97      0   13.81      0   12.02      0   7.336      0  -4.864    
   ( 48,  1, 99)  ( 50,  1, 99)  ( 49,  1, 99)  ( 47,  1, 99)  ( 50,  1, 99)
  0  -4.223      0  -2.208      0   1.475      0   1.576      0  0.6101    
   ( 50,  1, 99)  ( 47,  1, 99)  ( 50,  1, 99)  ( 50,  1, 99)  ( 50,  1, 99)
  0 -0.3718      0 -0.4772      0 -0.2791      0 -0.1619      0  0.1284    
   ( 49,  1, 99)  ( 50,  1, 99)  ( 50,  1, 99)  ( 50,  1, 98)  ( 50,  1, 99)
  0  0.1061      0  0.7025E-01  0 -0.2905E-01  1 -0.1589E-01
   ( 50,  1, 99)  ( 50,  1, 98)  ( 49,  1, 99)  ( 50,  1, 99)


 FLOW MODEL IS TRANSIENT
 FLOW MODEL CONTAINS CONSTANT-HEAD CELLS


 MAXIMUM STEPSIZE DURING WHICH ANY PARTICLE CANNOT MOVE MORE THAN ONE CELL
 =  8.684    (WHEN MIN. R.F.=1)  AT K=   1, I=   1, J=  99

 MAXIMUM STEPSIZE WHICH MEETS STABILITY CRITERION OF THE ADVECTION TERM
 (FOR PURE FINITE-DIFFERENCE OPTION, MIXELM=0) 
 =  8.480    (WHEN MIN. R.F.=1)  AT K=   1, I=   1, J=  99


 TOTAL NUMBER OF POINT SOURCES/SINKS PRESENT IN THE FLOW MODEL =       100

 MAXIMUM STEPSIZE WHICH MEETS STABILITY CRITERION OF THE SINK & SOURCE TERM
 =  122.8    (WHEN MIN. R.F.=1)  AT K=   1, I=   1, J=   1

 MAXIMUM STEPSIZE WHICH MEETS STABILITY CRITERION OF THE DISPERSION TERM
 =  1.936    (WHEN MIN. R.F.=1)  AT K=   1, I=   1, J=  99
     5 CALLS TO GCG PACKAGE FOR TRANSPORT TIME STEP  25 IN FLOW TIME STEP   1 STRESS PERIOD   1
    18 TOTAL ITERATIONS
 
 SOLVING FOR HEAD 


     2 CALLS TO PCG ROUTINE FOR TIME STEP   1 IN STRESS PERIOD    1
    24 TOTAL ITERATIONS

 MAXIMUM HEAD CHANGE FOR EACH ITERATION (1 INDICATES THE FIRST INNER ITERATION):

    HEAD CHANGE    HEAD CHANGE    HEAD CHANGE    HEAD CHANGE    HEAD CHANGE 
   LAYER,ROW,COL  LAYER,ROW,COL  LAYER,ROW,COL  LAYER,ROW,COL  LAYER,ROW,COL
 ---------------------------------------------------------------------------
  1  0.3981E-02  0  0.1637E-02  0  0.9979E-03  0  0.1149E-02  0  0.1229E-02
   ( 50,  1, 85)  ( 47,  1, 90)  ( 43,  1, 94)  ( 44,  1,  4)  ( 49,  1,  1)
  0  0.5606E-03  0 -0.2685E-03  0 -0.1601E-03  0 -0.1444E-03  0  0.9263E-04
   ( 43,  1,  3)  ( 42,  1, 93)  ( 42,  1, 87)  ( 50,  1, 78)  (  1,  1, 87)
  0  0.5872E-04  0  0.4218E-04  0  0.2879E-04  0  0.1578E-04  0  0.9953E-05
   (  3,  1, 80)  (  2,  1, 82)  (  3,  1, 75)  (  4,  1, 69)  (  3,  1, 63)
  0  0.6528E-05  0  0.4184E-05  0  0.3172E-05  0 -0.2203E-05  0 -0.1538E-05
   (  3,  1, 57)  (  1,  1, 55)  (  3,  1, 50)  ( 37,  1,  2)  ( 41,  1,  2)
  0 -0.1369E-05  0 -0.1019E-05  0 -0.6017E-06  1  0.1586E-06
   ( 43,  1,  1)  ( 48,  1,  7)  ( 48,  1,  1)  (  2,  1, 77)

 MAXIMUM RESIDUAL FOR EACH ITERATION (1 INDICATES THE FIRST INNER ITERATION):

    RESIDUAL       RESIDUAL       RESIDUAL       RESIDUAL       RESIDUAL    
   LAYER,ROW,COL  LAYER,ROW,COL  LAYER,ROW,COL  LAYER,ROW,COL  LAYER,ROW,COL
 ---------------------------------------------------------------------------
  1   33.71      0   28.27      0   27.12      0  -45.27      0  -45.49    
   ( 50,  1, 89)  ( 50,  1, 81)  ( 49,  1, 99)  ( 50,  1, 99)  ( 49,  1, 99)
  0  -25.39      0   13.13      0   11.52      0   7.061      0  -4.652    
   ( 48,  1, 99)  ( 50,  1, 99)  ( 49,  1, 99)  ( 47,  1, 99)  ( 50,  1, 99)
  0  -3.969      0  -2.114      0   1.398      0   1.486      0  0.5672    
   ( 50,  1, 99)  ( 47,  1, 99)  ( 50,  1, 99)  ( 50,  1, 99)  ( 50,  1, 99)
  0 -0.3667      0 -0.4484      0 -0.2623      0 -0.1552      0  0.1195    
   ( 49,  1, 99)  ( 50,  1, 99)  ( 50,  1, 99)  ( 50,  1, 98)  ( 50,  1, 99)
  0  0.9947E-01  0 -0.6792E-01  0 -0.2735E-01  1 -0.1473E-01
   ( 50,  1, 99)  ( 49,  1, 99)  ( 49,  1, 99)  ( 50,  1, 99)


 FLOW MODEL IS TRANSIENT
 FLOW MODEL CONTAINS CONSTANT-HEAD CELLS


 MAXIMUM STEPSIZE DURING WHICH ANY PARTICLE CANNOT MOVE MORE THAN ONE CELL
 =  8.682    (WHEN MIN. R.F.=1)  AT K=   1, I=   1, J=  99

 MAXIMUM STEPSIZE WHICH MEETS STABILITY CRITERION OF THE ADVECTION TERM
 (FOR PURE FINITE-DIFFERENCE OPTION, MIXELM=0) 
 =  8.478    (WHEN MIN. R.F.=1)  AT K=   1, I=   1, J=  99


 TOTAL NUMBER OF POINT SOURCES/SINKS PRESENT IN THE FLOW MODEL =       100

 MAXIMUM STEPSIZE WHICH MEETS STABILITY CRITERION OF THE SINK & SOURCE TERM
 =  122.8    (WHEN MIN. R.F.=1)  AT K=   1, I=   1, J=   1

 MAXIMUM STEPSIZE WHICH MEETS STABILITY CRITERION OF THE DISPERSION TERM
 =  1.936    (WHEN MIN. R.F.=1)  AT K=   1, I=   1, J=  99
     5 CALLS TO GCG PACKAGE FOR TRANSPORT TIME STEP  26 IN FLOW TIME STEP   1 STRESS PERIOD   1
    18 TOTAL ITERATIONS
 
 SOLVING FOR HEAD 


     2 CALLS TO PCG ROUTINE FOR TIME STEP   1 IN STRESS PERIOD    1
    23 TOTAL ITERATIONS

 MAXIMUM HEAD CHANGE FOR EACH ITERATION (1 INDICATES THE FIRST INNER ITERATION):

    HEAD CHANGE    HEAD CHANGE    HEAD CHANGE    HEAD CHANGE    HEAD CHANGE 
   LAYER,ROW,COL  LAYER,ROW,COL  LAYER,ROW,COL  LAYER,ROW,COL  LAYER,ROW,COL
 ---------------------------------------------------------------------------
  1  0.3728E-02  0  0.1436E-02  0  0.8308E-03  0  0.8755E-03  0  0.1081E-02
   ( 50,  1, 85)  ( 47,  1, 90)  ( 43,  1, 93)  ( 45,  1, 70)  ( 49,  1,  1)
  0  0.5645E-03  0 -0.2520E-03  0 -0.1508E-03  0 -0.1367E-03  0  0.9054E-04
   ( 43,  1,  3)  ( 42,  1, 93)  ( 42,  1, 87)  ( 50,  1, 78)  (  1,  1, 86)
  0  0.5623E-04  0  0.4124E-04  0  0.2836E-04  0  0.1582E-04  0  0.9891E-05
   (  3,  1, 80)  (  2,  1, 82)  (  3,  1, 75)  (  4,  1, 69)  (  3,  1, 62)
  0  0.6339E-05  0  0.4159E-05  0  0.3143E-05  0 -0.2098E-05  0 -0.1481E-05
   (  3,  1, 56)  (  1,  1, 56)  (  3,  1, 50)  ( 37,  1,  2)  ( 41,  1,  2)
  0 -0.1332E-05  0 -0.9930E-06  1 -0.2343E-06
   ( 44,  1,  1)  ( 48,  1,  7)  ( 38,  1,  7)

 MAXIMUM RESIDUAL FOR EACH ITERATION (1 INDICATES THE FIRST INNER ITERATION):

    RESIDUAL       RESIDUAL       RESIDUAL       RESIDUAL       RESIDUAL    
   LAYER,ROW,COL  LAYER,ROW,COL  LAYER,ROW,COL  LAYER,ROW,COL  LAYER,ROW,COL
 ---------------------------------------------------------------------------
  1   29.78      0   23.14      0   21.23      0  -36.24      0  -40.18    
   ( 50,  1, 89)  ( 50,  1, 80)  ( 49,  1, 99)  ( 50,  1, 99)  ( 49,  1, 99)
  0  -23.78      0   12.45      0   11.06      0   6.813      0  -4.459    
   ( 48,  1, 99)  ( 50,  1, 99)  ( 49,  1, 99)  ( 47,  1, 99)  ( 50,  1, 99)
  0  -3.753      0  -2.035      0   1.327      0   1.407      0  0.5320    
   ( 50,  1, 99)  ( 47,  1, 99)  ( 50,  1, 99)  ( 50,  1, 99)  ( 50,  1, 99)
  0 -0.3613      0 -0.4228      0 -0.2473      0 -0.1494      0  0.1116    
   ( 49,  1, 99)  ( 50,  1, 99)  ( 50,  1, 99)  ( 50,  1, 98)  ( 50,  1, 99)
  0  0.9367E-01  0 -0.6647E-01  1  0.3174E-01
   ( 50,  1, 99)  ( 49,  1, 99)  ( 50,  1, 98)


 FLOW MODEL IS TRANSIENT
 FLOW MODEL CONTAINS CONSTANT-HEAD CELLS


 MAXIMUM STEPSIZE DURING WHICH ANY PARTICLE CANNOT MOVE MORE THAN ONE CELL
 =  8.680    (WHEN MIN. R.F.=1)  AT K=   1, I=   1, J=  99

 MAXIMUM STEPSIZE WHICH MEETS STABILITY CRITERION OF THE ADVECTION TERM
 (FOR PURE FINITE-DIFFERENCE OPTION, MIXELM=0) 
 =  8.477    (WHEN MIN. R.F.=1)  AT K=   1, I=   1, J=  99


 TOTAL NUMBER OF POINT SOURCES/SINKS PRESENT IN THE FLOW MODEL =       100

 MAXIMUM STEPSIZE WHICH MEETS STABILITY CRITERION OF THE SINK & SOURCE TERM
 =  122.8    (WHEN MIN. R.F.=1)  AT K=   1, I=   1, J=   1

 MAXIMUM STEPSIZE WHICH MEETS STABILITY CRITERION OF THE DISPERSION TERM
 =  1.935    (WHEN MIN. R.F.=1)  AT K=   1, I=   1, J=  99
     5 CALLS TO GCG PACKAGE FOR TRANSPORT TIME STEP  27 IN FLOW TIME STEP   1 STRESS PERIOD   1
    17 TOTAL ITERATIONS
 
 SOLVING FOR HEAD 


     2 CALLS TO PCG ROUTINE FOR TIME STEP   1 IN STRESS PERIOD    1
    23 TOTAL ITERATIONS

 MAXIMUM HEAD CHANGE FOR EACH ITERATION (1 INDICATES THE FIRST INNER ITERATION):

    HEAD CHANGE    HEAD CHANGE    HEAD CHANGE    HEAD CHANGE    HEAD CHANGE 
   LAYER,ROW,COL  LAYER,ROW,COL  LAYER,ROW,COL  LAYER,ROW,COL  LAYER,ROW,COL
 ---------------------------------------------------------------------------
  1  0.3517E-02  0  0.1278E-02  0  0.6988E-03  0  0.7012E-03  0  0.9192E-03
   ( 50,  1, 85)  ( 47,  1, 90)  ( 43,  1, 93)  ( 45,  1, 70)  ( 49,  1,  1)
  0  0.5552E-03  0 -0.2324E-03  0  0.1462E-03  0 -0.1282E-03  0  0.8863E-04
   ( 43,  1,  3)  ( 42,  1, 93)  ( 18,  1, 86)  ( 50,  1, 78)  (  1,  1, 86)
  0  0.5513E-04  0  0.4140E-04  0  0.2852E-04  0  0.1608E-04  0  0.1010E-04
   (  3,  1, 79)  (  2,  1, 82)  (  3,  1, 74)  (  4,  1, 69)  (  3,  1, 62)
  0  0.6440E-05  0  0.4129E-05  0  0.2994E-05  0 -0.1988E-05  0 -0.1414E-05
   (  4,  1, 56)  (  1,  1, 58)  (  2,  1, 50)  ( 41,  1, 10)  ( 42,  1,  2)
  0 -0.1293E-05  0 -0.9522E-06  1 -0.2132E-06
   ( 44,  1,  1)  ( 48,  1,  7)  ( 38,  1,  7)

 MAXIMUM RESIDUAL FOR EACH ITERATION (1 INDICATES THE FIRST INNER ITERATION):

    RESIDUAL       RESIDUAL       RESIDUAL       RESIDUAL       RESIDUAL    
   LAYER,ROW,COL  LAYER,ROW,COL  LAYER,ROW,COL  LAYER,ROW,COL  LAYER,ROW,COL
 ---------------------------------------------------------------------------
  1   26.80      0   19.26      0   16.72      0  -28.44      0  -34.85    
   ( 50,  1, 89)  ( 50,  1, 80)  ( 49,  1, 99)  ( 50,  1, 99)  ( 49,  1, 99)
  0  -22.11      0   11.76      0   10.60      0   6.593      0  -4.271    
   ( 48,  1, 99)  ( 50,  1, 99)  ( 49,  1, 99)  ( 47,  1, 99)  ( 50,  1, 99)
  0  -3.585      0  -1.974      0   1.266      0   1.335      0  0.4891    
   ( 50,  1, 99)  ( 47,  1, 99)  ( 50,  1, 99)  ( 50,  1, 99)  ( 50,  1, 99)
  0 -0.3588      0 -0.3990      0 -0.2307      0  0.1448      0  0.1044    
   ( 49,  1, 99)  ( 50,  1, 99)  ( 50,  1, 99)  ( 49,  1, 99)  ( 50,  1, 99)
  0  0.8817E-01  0 -0.6504E-01  1  0.3104E-01
   ( 50,  1, 99)  ( 49,  1, 99)  ( 50,  1, 98)


 FLOW MODEL IS TRANSIENT
 FLOW MODEL CONTAINS CONSTANT-HEAD CELLS


 MAXIMUM STEPSIZE DURING WHICH ANY PARTICLE CANNOT MOVE MORE THAN ONE CELL
 =  8.680    (WHEN MIN. R.F.=1)  AT K=   1, I=   1, J=  99

 MAXIMUM STEPSIZE WHICH MEETS STABILITY CRITERION OF THE ADVECTION TERM
 (FOR PURE FINITE-DIFFERENCE OPTION, MIXELM=0) 
 =  8.477    (WHEN MIN. R.F.=1)  AT K=   1, I=   1, J=  99


 TOTAL NUMBER OF POINT SOURCES/SINKS PRESENT IN THE FLOW MODEL =       100

 MAXIMUM STEPSIZE WHICH MEETS STABILITY CRITERION OF THE SINK & SOURCE TERM
 =  122.8    (WHEN MIN. R.F.=1)  AT K=   1, I=   1, J=   1

 MAXIMUM STEPSIZE WHICH MEETS STABILITY CRITERION OF THE DISPERSION TERM
 =  1.935    (WHEN MIN. R.F.=1)  AT K=   1, I=   1, J=  99
     5 CALLS TO GCG PACKAGE FOR TRANSPORT TIME STEP  28 IN FLOW TIME STEP   1 STRESS PERIOD   1
    17 TOTAL ITERATIONS
 
 SOLVING FOR HEAD 


     2 CALLS TO PCG ROUTINE FOR TIME STEP   1 IN STRESS PERIOD    1
    23 TOTAL ITERATIONS

 MAXIMUM HEAD CHANGE FOR EACH ITERATION (1 INDICATES THE FIRST INNER ITERATION):

    HEAD CHANGE    HEAD CHANGE    HEAD CHANGE    HEAD CHANGE    HEAD CHANGE 
   LAYER,ROW,COL  LAYER,ROW,COL  LAYER,ROW,COL  LAYER,ROW,COL  LAYER,ROW,COL
 ---------------------------------------------------------------------------
  1  0.3345E-02  0  0.1153E-02  0  0.5923E-03  0  0.5527E-03  0  0.7525E-03
   ( 50,  1, 84)  ( 47,  1, 90)  ( 44,  1, 93)  ( 45,  1, 70)  ( 49,  1,  1)
  0  0.5294E-03  0  0.2378E-03  0  0.1418E-03  0 -0.1199E-03  0  0.8632E-04
   ( 43,  1,  3)  ( 46,  1, 48)  ( 18,  1, 85)  ( 50,  1, 77)  (  1,  1, 86)
  0  0.5327E-04  0  0.4095E-04  0  0.2866E-04  0  0.1626E-04  0  0.1007E-04
   (  3,  1, 78)  (  2,  1, 81)  (  3,  1, 74)  (  4,  1, 68)  (  3,  1, 61)
  0  0.6343E-05  0  0.4181E-05  0  0.3022E-05  0 -0.1930E-05  0 -0.1394E-05
   (  4,  1, 56)  (  1,  1, 57)  (  2,  1, 50)  ( 42,  1, 10)  ( 42,  1,  2)
  0 -0.1255E-05  0 -0.9312E-06  1 -0.2061E-06
   ( 44,  1,  1)  ( 48,  1,  7)  ( 39,  1,  7)

 MAXIMUM RESIDUAL FOR EACH ITERATION (1 INDICATES THE FIRST INNER ITERATION):

    RESIDUAL       RESIDUAL       RESIDUAL       RESIDUAL       RESIDUAL    
   LAYER,ROW,COL  LAYER,ROW,COL  LAYER,ROW,COL  LAYER,ROW,COL  LAYER,ROW,COL
 ---------------------------------------------------------------------------
  1   24.52      0   16.28      0   13.30      0  -21.93      0  -29.58    
   ( 50,  1, 89)  ( 50,  1, 79)  ( 49,  1, 99)  ( 50,  1, 99)  ( 49,  1, 99)
  0  -20.33      0   11.06      0   10.15      0   6.376      0  -4.110    
   ( 48,  1, 99)  ( 50,  1, 99)  ( 49,  1, 99)  ( 47,  1, 99)  ( 50,  1, 99)
  0  -3.421      0  -1.916      0   1.208      0   1.273      0  0.4768    
   ( 50,  1, 99)  ( 47,  1, 99)  ( 50,  1, 99)  ( 50,  1, 99)  ( 47,  1, 99)
  0 -0.3552      0 -0.3781      0 -0.2152      0  0.1419      0  0.9862E-01
   ( 49,  1, 99)  ( 50,  1, 99)  ( 50,  1, 99)  ( 49,  1, 99)  ( 50,  1, 99)
  0  0.8242E-01  0 -0.6367E-01  1  0.2983E-01
   ( 50,  1, 99)  ( 49,  1, 99)  ( 50,  1, 98)


 FLOW MODEL IS TRANSIENT
 FLOW MODEL CONTAINS CONSTANT-HEAD CELLS


 MAXIMUM STEPSIZE DURING WHICH ANY PARTICLE CANNOT MOVE MORE THAN ONE CELL
 =  8.681    (WHEN MIN. R.F.=1)  AT K=   1, I=   1, J=  99

 MAXIMUM STEPSIZE WHICH MEETS STABILITY CRITERION OF THE ADVECTION TERM
 (FOR PURE FINITE-DIFFERENCE OPTION, MIXELM=0) 
 =  8.479    (WHEN MIN. R.F.=1)  AT K=   1, I=   1, J=  99


 TOTAL NUMBER OF POINT SOURCES/SINKS PRESENT IN THE FLOW MODEL =       100

 MAXIMUM STEPSIZE WHICH MEETS STABILITY CRITERION OF THE SINK & SOURCE TERM
 =  122.8    (WHEN MIN. R.F.=1)  AT K=   1, I=   1, J=   1

 MAXIMUM STEPSIZE WHICH MEETS STABILITY CRITERION OF THE DISPERSION TERM
 =  1.936    (WHEN MIN. R.F.=1)  AT K=   1, I=   1, J=  99
     5 CALLS TO GCG PACKAGE FOR TRANSPORT TIME STEP  29 IN FLOW TIME STEP   1 STRESS PERIOD   1
    17 TOTAL ITERATIONS
 
 SOLVING FOR HEAD 


     2 CALLS TO PCG ROUTINE FOR TIME STEP   1 IN STRESS PERIOD    1
    23 TOTAL ITERATIONS

 MAXIMUM HEAD CHANGE FOR EACH ITERATION (1 INDICATES THE FIRST INNER ITERATION):

    HEAD CHANGE    HEAD CHANGE    HEAD CHANGE    HEAD CHANGE    HEAD CHANGE 
   LAYER,ROW,COL  LAYER,ROW,COL  LAYER,ROW,COL  LAYER,ROW,COL  LAYER,ROW,COL
 ---------------------------------------------------------------------------
  1  0.3215E-02  0  0.1064E-02  0  0.5115E-03  0  0.4357E-03  0  0.6099E-03
   ( 50,  1, 84)  ( 47,  1, 89)  ( 44,  1, 93)  ( 46,  1, 71)  ( 45,  1, 62)
  0  0.4924E-03  0  0.2456E-03  0  0.1373E-03  0 -0.1106E-03  0  0.8406E-04
   ( 46,  1, 56)  ( 46,  1, 48)  ( 18,  1, 85)  ( 50,  1, 77)  (  1,  1, 86)
  0  0.5241E-04  0  0.4079E-04  0  0.2852E-04  0  0.1628E-04  0  0.9961E-05
   (  2,  1, 76)  (  2,  1, 81)  (  3,  1, 74)  (  4,  1, 68)  (  4,  1, 61)
  0  0.6220E-05  0  0.4172E-05  0  0.3014E-05  0 -0.1875E-05  0 -0.1365E-05
   (  4,  1, 55)  (  1,  1, 57)  (  2,  1, 50)  ( 42,  1, 10)  ( 42,  1,  2)
  0 -0.1222E-05  0 -0.9116E-06  1 -0.2017E-06
   ( 44,  1,  1)  ( 48,  1,  6)  ( 39,  1,  7)

 MAXIMUM RESIDUAL FOR EACH ITERATION (1 INDICATES THE FIRST INNER ITERATION):

    RESIDUAL       RESIDUAL       RESIDUAL       RESIDUAL       RESIDUAL    
   LAYER,ROW,COL  LAYER,ROW,COL  LAYER,ROW,COL  LAYER,ROW,COL  LAYER,ROW,COL
 ---------------------------------------------------------------------------
  1   22.85      0   14.21      0   10.74      0  -16.67      0  -24.57    
   ( 50,  1, 88)  ( 50,  1, 79)  ( 49,  1, 99)  ( 50,  1, 99)  ( 49,  1, 99)
  0  -18.45      0   10.31      0   9.686      0   6.166      0  -3.953    
   ( 48,  1, 99)  ( 50,  1, 99)  ( 49,  1, 99)  ( 47,  1, 99)  ( 50,  1, 99)
  0  -3.279      0  -1.868      0   1.153      0   1.217      0  0.4686    
   ( 50,  1, 99)  ( 47,  1, 99)  ( 50,  1, 99)  ( 50,  1, 99)  ( 47,  1, 99)
  0 -0.3506      0 -0.3592      0 -0.2022      0  0.1392      0  0.9326E-01
   ( 49,  1, 99)  ( 50,  1, 99)  ( 50,  1, 99)  ( 49,  1, 99)  ( 50,  1, 99)
  0  0.7733E-01  0 -0.6244E-01  1  0.2865E-01
   ( 50,  1, 99)  ( 49,  1, 99)  ( 50,  1, 98)


 FLOW MODEL IS TRANSIENT
 FLOW MODEL CONTAINS CONSTANT-HEAD CELLS


 MAXIMUM STEPSIZE DURING WHICH ANY PARTICLE CANNOT MOVE MORE THAN ONE CELL
 =  8.683    (WHEN MIN. R.F.=1)  AT K=   1, I=   1, J=  99

 MAXIMUM STEPSIZE WHICH MEETS STABILITY CRITERION OF THE ADVECTION TERM
 (FOR PURE FINITE-DIFFERENCE OPTION, MIXELM=0) 
 =  8.481    (WHEN MIN. R.F.=1)  AT K=   1, I=   1, J=  99


 TOTAL NUMBER OF POINT SOURCES/SINKS PRESENT IN THE FLOW MODEL =       100

 MAXIMUM STEPSIZE WHICH MEETS STABILITY CRITERION OF THE SINK & SOURCE TERM
 =  122.8    (WHEN MIN. R.F.=1)  AT K=   1, I=   1, J=   1

 MAXIMUM STEPSIZE WHICH MEETS STABILITY CRITERION OF THE DISPERSION TERM
 =  1.936    (WHEN MIN. R.F.=1)  AT K=   1, I=   1, J=  99
     5 CALLS TO GCG PACKAGE FOR TRANSPORT TIME STEP  30 IN FLOW TIME STEP   1 STRESS PERIOD   1
    17 TOTAL ITERATIONS
 
 SOLVING FOR HEAD 


     2 CALLS TO PCG ROUTINE FOR TIME STEP   1 IN STRESS PERIOD    1
    23 TOTAL ITERATIONS

 MAXIMUM HEAD CHANGE FOR EACH ITERATION (1 INDICATES THE FIRST INNER ITERATION):

    HEAD CHANGE    HEAD CHANGE    HEAD CHANGE    HEAD CHANGE    HEAD CHANGE 
   LAYER,ROW,COL  LAYER,ROW,COL  LAYER,ROW,COL  LAYER,ROW,COL  LAYER,ROW,COL
 ---------------------------------------------------------------------------
  1  0.3100E-02  0  0.9934E-03  0  0.4505E-03  0  0.3438E-03  0  0.4967E-03
   ( 50,  1, 84)  ( 47,  1, 89)  ( 44,  1, 92)  ( 45,  1, 69)  ( 45,  1, 62)
  0  0.4487E-03  0  0.2487E-03  0  0.1309E-03  0 -0.9993E-04  0  0.8154E-04
   ( 47,  1, 57)  ( 46,  1, 47)  ( 19,  1, 85)  ( 50,  1, 77)  (  1,  1, 85)
  0  0.5260E-04  0  0.4087E-04  0  0.2857E-04  0  0.1631E-04  0  0.9881E-05
   (  2,  1, 75)  (  2,  1, 81)  (  3,  1, 73)  (  5,  1, 68)  (  4,  1, 61)
  0  0.6075E-05  0  0.4167E-05  0  0.3003E-05  0 -0.1833E-05  0 -0.1339E-05
   (  5,  1, 55)  (  1,  1, 56)  (  3,  1, 51)  ( 42,  1, 10)  ( 42,  1,  2)
  0 -0.1191E-05  0 -0.8971E-06  1 -0.1954E-06
   ( 44,  1,  1)  ( 48,  1,  6)  ( 38,  1,  6)

 MAXIMUM RESIDUAL FOR EACH ITERATION (1 INDICATES THE FIRST INNER ITERATION):

    RESIDUAL       RESIDUAL       RESIDUAL       RESIDUAL       RESIDUAL    
   LAYER,ROW,COL  LAYER,ROW,COL  LAYER,ROW,COL  LAYER,ROW,COL  LAYER,ROW,COL
 ---------------------------------------------------------------------------
  1   21.54      0   12.60      0   8.828      0  -12.54      0  -19.96    
   ( 50,  1, 88)  ( 50,  1, 79)  ( 49,  1, 99)  ( 50,  1, 99)  ( 49,  1, 99)
  0  -16.48      0   9.500      0   9.194      0   5.963      0  -3.793    
   ( 48,  1, 99)  ( 50,  1, 99)  ( 49,  1, 99)  ( 47,  1, 99)  ( 50,  1, 99)
  0  -3.164      0  -1.832      0   1.102      0   1.168      0  0.4622    
   ( 50,  1, 99)  ( 47,  1, 99)  ( 50,  1, 99)  ( 50,  1, 99)  ( 47,  1, 99)
  0 -0.3460      0 -0.3420      0 -0.1912      0  0.1367      0  0.8802E-01
   ( 49,  1, 99)  ( 50,  1, 99)  ( 50,  1, 99)  ( 49,  1, 99)  ( 50,  1, 99)
  0  0.7321E-01  0 -0.6149E-01  1  0.2793E-01
   ( 50,  1, 99)  ( 49,  1, 99)  ( 50,  1, 98)


 FLOW MODEL IS TRANSIENT
 FLOW MODEL CONTAINS CONSTANT-HEAD CELLS


 MAXIMUM STEPSIZE DURING WHICH ANY PARTICLE CANNOT MOVE MORE THAN ONE CELL
 =  8.685    (WHEN MIN. R.F.=1)  AT K=   1, I=   1, J=  99

 MAXIMUM STEPSIZE WHICH MEETS STABILITY CRITERION OF THE ADVECTION TERM
 (FOR PURE FINITE-DIFFERENCE OPTION, MIXELM=0) 
 =  8.483    (WHEN MIN. R.F.=1)  AT K=   1, I=   1, J=  99


 TOTAL NUMBER OF POINT SOURCES/SINKS PRESENT IN THE FLOW MODEL =       100

 MAXIMUM STEPSIZE WHICH MEETS STABILITY CRITERION OF THE SINK & SOURCE TERM
 =  122.8    (WHEN MIN. R.F.=1)  AT K=   1, I=   1, J=   1

 MAXIMUM STEPSIZE WHICH MEETS STABILITY CRITERION OF THE DISPERSION TERM
 =  1.937    (WHEN MIN. R.F.=1)  AT K=   1, I=   1, J=  99
     5 CALLS TO GCG PACKAGE FOR TRANSPORT TIME STEP  31 IN FLOW TIME STEP   1 STRESS PERIOD   1
    17 TOTAL ITERATIONS
 
 SOLVING FOR HEAD 


     2 CALLS TO PCG ROUTINE FOR TIME STEP   1 IN STRESS PERIOD    1
    23 TOTAL ITERATIONS

 MAXIMUM HEAD CHANGE FOR EACH ITERATION (1 INDICATES THE FIRST INNER ITERATION):

    HEAD CHANGE    HEAD CHANGE    HEAD CHANGE    HEAD CHANGE    HEAD CHANGE 
   LAYER,ROW,COL  LAYER,ROW,COL  LAYER,ROW,COL  LAYER,ROW,COL  LAYER,ROW,COL
 ---------------------------------------------------------------------------
  1  0.3000E-02  0  0.9373E-03  0  0.4040E-03  0  0.2746E-03  0  0.3982E-03
   ( 50,  1, 83)  ( 47,  1, 89)  ( 44,  1, 92)  ( 46,  1, 70)  ( 46,  1, 63)
  0  0.3965E-03  0  0.2444E-03  0  0.1329E-03  0  0.9493E-04  0  0.7891E-04
   ( 47,  1, 57)  ( 46,  1, 47)  ( 46,  1, 38)  ( 13,  1, 86)  (  1,  1, 85)
  0  0.5338E-04  0  0.4123E-04  0  0.2860E-04  0  0.1635E-04  0  0.9761E-05
   (  3,  1, 76)  (  2,  1, 80)  (  4,  1, 74)  (  5,  1, 68)  (  4,  1, 61)
  0  0.6031E-05  0  0.4136E-05  0  0.2952E-05  0 -0.1777E-05  0 -0.1307E-05
   (  1,  1, 62)  (  2,  1, 57)  (  3,  1, 50)  ( 42,  1, 10)  ( 42,  1,  2)
  0 -0.1165E-05  0 -0.8822E-06  1 -0.1868E-06
   ( 44,  1,  1)  ( 48,  1,  6)  ( 40,  1,  7)

 MAXIMUM RESIDUAL FOR EACH ITERATION (1 INDICATES THE FIRST INNER ITERATION):

    RESIDUAL       RESIDUAL       RESIDUAL       RESIDUAL       RESIDUAL    
   LAYER,ROW,COL  LAYER,ROW,COL  LAYER,ROW,COL  LAYER,ROW,COL  LAYER,ROW,COL
 ---------------------------------------------------------------------------
  1   20.47      0   11.42      0   7.399      0  -9.347      0  -15.88    
   ( 50,  1, 88)  ( 50,  1, 78)  ( 49,  1, 99)  ( 50,  1, 99)  ( 49,  1, 99)
  0  -14.43      0   8.629      0   8.659      0   5.745      0  -3.634    
   ( 48,  1, 99)  ( 50,  1, 99)  ( 49,  1, 99)  ( 47,  1, 99)  ( 50,  1, 99)
  0  -3.056      0  -1.798      0   1.056      0   1.122      0  0.4561    
   ( 50,  1, 99)  ( 47,  1, 99)  ( 50,  1, 99)  ( 50,  1, 99)  ( 47,  1, 99)
  0 -0.3422      0 -0.3265      0 -0.1800      0  0.1346      0  0.8374E-01
   ( 49,  1, 99)  ( 50,  1, 99)  ( 50,  1, 99)  ( 49,  1, 99)  ( 50,  1, 99)
  0  0.6930E-01  0 -0.6075E-01  1  0.2716E-01
   ( 50,  1, 99)  ( 49,  1, 99)  ( 50,  1, 98)


 FLOW MODEL IS TRANSIENT
 FLOW MODEL CONTAINS CONSTANT-HEAD CELLS


 MAXIMUM STEPSIZE DURING WHICH ANY PARTICLE CANNOT MOVE MORE THAN ONE CELL
 =  8.688    (WHEN MIN. R.F.=1)  AT K=   1, I=   1, J=  99

 MAXIMUM STEPSIZE WHICH MEETS STABILITY CRITERION OF THE ADVECTION TERM
 (FOR PURE FINITE-DIFFERENCE OPTION, MIXELM=0) 
 =  8.486    (WHEN MIN. R.F.=1)  AT K=   1, I=   1, J=  99


 TOTAL NUMBER OF POINT SOURCES/SINKS PRESENT IN THE FLOW MODEL =       100

 MAXIMUM STEPSIZE WHICH MEETS STABILITY CRITERION OF THE SINK & SOURCE TERM
 =  122.8    (WHEN MIN. R.F.=1)  AT K=   1, I=   1, J=   1

 MAXIMUM STEPSIZE WHICH MEETS STABILITY CRITERION OF THE DISPERSION TERM
 =  1.937    (WHEN MIN. R.F.=1)  AT K=   1, I=   1, J=  99
     5 CALLS TO GCG PACKAGE FOR TRANSPORT TIME STEP  32 IN FLOW TIME STEP   1 STRESS PERIOD   1
    17 TOTAL ITERATIONS
 
 SOLVING FOR HEAD 


     2 CALLS TO PCG ROUTINE FOR TIME STEP   1 IN STRESS PERIOD    1
    23 TOTAL ITERATIONS

 MAXIMUM HEAD CHANGE FOR EACH ITERATION (1 INDICATES THE FIRST INNER ITERATION):

    HEAD CHANGE    HEAD CHANGE    HEAD CHANGE    HEAD CHANGE    HEAD CHANGE 
   LAYER,ROW,COL  LAYER,ROW,COL  LAYER,ROW,COL  LAYER,ROW,COL  LAYER,ROW,COL
 ---------------------------------------------------------------------------
  1  0.2925E-02  0  0.8950E-03  0  0.3687E-03  0  0.2243E-03  0  0.3168E-03
   ( 50,  1, 83)  ( 47,  1, 88)  ( 44,  1, 92)  ( 39,  1, 94)  ( 46,  1, 63)
  0  0.3402E-03  0  0.2326E-03  0  0.1363E-03  0  0.9190E-04  0  0.7562E-04
   ( 47,  1, 57)  ( 47,  1, 48)  ( 46,  1, 38)  ( 14,  1, 86)  (  1,  1, 84)
  0  0.5380E-04  0  0.4128E-04  0  0.2854E-04  0  0.1632E-04  0  0.9700E-05
   (  3,  1, 75)  (  2,  1, 80)  (  4,  1, 74)  (  5,  1, 68)  (  5,  1, 61)
  0  0.6056E-05  0  0.4121E-05  0  0.2903E-05  0 -0.1724E-05  0 -0.1279E-05
   (  1,  1, 62)  (  2,  1, 56)  (  3,  1, 50)  ( 42,  1,  9)  ( 43,  1,  2)
  0 -0.1136E-05  0 -0.8689E-06  1 -0.1823E-06
   ( 44,  1,  1)  ( 48,  1,  6)  ( 40,  1,  7)

 MAXIMUM RESIDUAL FOR EACH ITERATION (1 INDICATES THE FIRST INNER ITERATION):

    RESIDUAL       RESIDUAL       RESIDUAL       RESIDUAL       RESIDUAL    
   LAYER,ROW,COL  LAYER,ROW,COL  LAYER,ROW,COL  LAYER,ROW,COL  LAYER,ROW,COL
 ---------------------------------------------------------------------------
  1   19.59      0   10.60      0   6.335      0  -6.972      0  -12.45    
   ( 50,  1, 87)  ( 50,  1, 78)  ( 49,  1, 99)  ( 50,  1, 99)  ( 49,  1, 99)
  0  -12.43      0   7.712      0   8.074      0   5.511      0  -3.474    
   ( 48,  1, 99)  ( 50,  1, 99)  ( 49,  1, 99)  ( 47,  1, 99)  ( 50,  1, 99)
  0  -2.952      0  -1.766      0   1.014      0   1.080      0  0.4511    
   ( 50,  1, 99)  ( 47,  1, 99)  ( 50,  1, 99)  ( 50,  1, 99)  ( 47,  1, 99)
  0 -0.3378      0 -0.3119      0 -0.1710      0  0.1325      0  0.7921E-01
   ( 49,  1, 99)  ( 50,  1, 99)  ( 50,  1, 99)  ( 49,  1, 99)  ( 50,  1, 99)
  0  0.6585E-01  0 -0.5990E-01  1  0.2637E-01
   ( 50,  1, 99)  ( 49,  1, 99)  ( 50,  1, 98)


 FLOW MODEL IS TRANSIENT
 FLOW MODEL CONTAINS CONSTANT-HEAD CELLS


 MAXIMUM STEPSIZE DURING WHICH ANY PARTICLE CANNOT MOVE MORE THAN ONE CELL
 =  8.691    (WHEN MIN. R.F.=1)  AT K=   1, I=   1, J=  99

 MAXIMUM STEPSIZE WHICH MEETS STABILITY CRITERION OF THE ADVECTION TERM
 (FOR PURE FINITE-DIFFERENCE OPTION, MIXELM=0) 
 =  8.489    (WHEN MIN. R.F.=1)  AT K=   1, I=   1, J=  99


 TOTAL NUMBER OF POINT SOURCES/SINKS PRESENT IN THE FLOW MODEL =       100

 MAXIMUM STEPSIZE WHICH MEETS STABILITY CRITERION OF THE SINK & SOURCE TERM
 =  122.8    (WHEN MIN. R.F.=1)  AT K=   1, I=   1, J=   1

 MAXIMUM STEPSIZE WHICH MEETS STABILITY CRITERION OF THE DISPERSION TERM
 =  1.938    (WHEN MIN. R.F.=1)  AT K=   1, I=   1, J=  99
     5 CALLS TO GCG PACKAGE FOR TRANSPORT TIME STEP  33 IN FLOW TIME STEP   1 STRESS PERIOD   1
    16 TOTAL ITERATIONS
 
 SOLVING FOR HEAD 


     2 CALLS TO PCG ROUTINE FOR TIME STEP   1 IN STRESS PERIOD    1
    23 TOTAL ITERATIONS

 MAXIMUM HEAD CHANGE FOR EACH ITERATION (1 INDICATES THE FIRST INNER ITERATION):

    HEAD CHANGE    HEAD CHANGE    HEAD CHANGE    HEAD CHANGE    HEAD CHANGE 
   LAYER,ROW,COL  LAYER,ROW,COL  LAYER,ROW,COL  LAYER,ROW,COL  LAYER,ROW,COL
 ---------------------------------------------------------------------------
  1  0.2854E-02  0  0.8636E-03  0  0.3425E-03  0  0.1939E-03  0  0.2501E-03
   ( 50,  1, 83)  ( 47,  1, 88)  ( 44,  1, 91)  ( 39,  1, 94)  ( 46,  1, 63)
  0  0.2832E-03  0  0.2138E-03  0  0.1358E-03  0  0.8701E-04  0  0.7249E-04
   ( 47,  1, 57)  ( 47,  1, 48)  ( 46,  1, 38)  ( 14,  1, 86)  (  1,  1, 84)
  0  0.5409E-04  0  0.4096E-04  0  0.2832E-04  0  0.1634E-04  0  0.9619E-05
   (  3,  1, 75)  (  2,  1, 79)  (  4,  1, 74)  (  5,  1, 67)  (  5,  1, 61)
  0  0.6036E-05  0  0.4071E-05  0  0.2820E-05  0 -0.1667E-05  0 -0.1247E-05
   (  1,  1, 62)  (  2,  1, 56)  (  3,  1, 50)  ( 42,  1,  9)  ( 43,  1,  2)
  0 -0.1121E-05  0 -0.8557E-06  1 -0.1743E-06
   ( 44,  1,  1)  ( 48,  1,  6)  ( 40,  1,  7)

 MAXIMUM RESIDUAL FOR EACH ITERATION (1 INDICATES THE FIRST INNER ITERATION):

    RESIDUAL       RESIDUAL       RESIDUAL       RESIDUAL       RESIDUAL    
   LAYER,ROW,COL  LAYER,ROW,COL  LAYER,ROW,COL  LAYER,ROW,COL  LAYER,ROW,COL
 ---------------------------------------------------------------------------
  1   18.96      0   9.930      0   5.525      0  -5.189      0  -9.610    
   ( 50,  1, 87)  ( 50,  1, 78)  ( 49,  1, 99)  ( 50,  1, 99)  ( 49,  1, 99)
  0  -10.48      0   6.745      0   7.423      0   5.244      0  -3.307    
   ( 48,  1, 99)  ( 50,  1, 99)  ( 49,  1, 99)  ( 47,  1, 99)  ( 50,  1, 99)
  0  -2.846      0  -1.733      0  0.9774      0   1.040      0  0.4469    
   ( 50,  1, 99)  ( 47,  1, 99)  ( 49,  1, 99)  ( 50,  1, 99)  ( 47,  1, 99)
  0 -0.3336      0 -0.2988      0 -0.1634      0  0.1309      0  0.7538E-01
   ( 49,  1, 99)  ( 50,  1, 99)  ( 50,  1, 99)  ( 49,  1, 99)  ( 50,  1, 99)
  0  0.6291E-01  0 -0.5942E-01  1  0.2573E-01
   ( 50,  1, 99)  ( 49,  1, 99)  ( 50,  1, 98)


 FLOW MODEL IS TRANSIENT
 FLOW MODEL CONTAINS CONSTANT-HEAD CELLS


 MAXIMUM STEPSIZE DURING WHICH ANY PARTICLE CANNOT MOVE MORE THAN ONE CELL
 =  8.695    (WHEN MIN. R.F.=1)  AT K=   1, I=   1, J=  99

 MAXIMUM STEPSIZE WHICH MEETS STABILITY CRITERION OF THE ADVECTION TERM
 (FOR PURE FINITE-DIFFERENCE OPTION, MIXELM=0) 
 =  8.493    (WHEN MIN. R.F.=1)  AT K=   1, I=   1, J=  99


 TOTAL NUMBER OF POINT SOURCES/SINKS PRESENT IN THE FLOW MODEL =       100

 MAXIMUM STEPSIZE WHICH MEETS STABILITY CRITERION OF THE SINK & SOURCE TERM
 =  122.8    (WHEN MIN. R.F.=1)  AT K=   1, I=   1, J=   1

 MAXIMUM STEPSIZE WHICH MEETS STABILITY CRITERION OF THE DISPERSION TERM
 =  1.939    (WHEN MIN. R.F.=1)  AT K=   1, I=   1, J=  99
     5 CALLS TO GCG PACKAGE FOR TRANSPORT TIME STEP  34 IN FLOW TIME STEP   1 STRESS PERIOD   1
    16 TOTAL ITERATIONS
 
 SOLVING FOR HEAD 


     2 CALLS TO PCG ROUTINE FOR TIME STEP   1 IN STRESS PERIOD    1
    23 TOTAL ITERATIONS

 MAXIMUM HEAD CHANGE FOR EACH ITERATION (1 INDICATES THE FIRST INNER ITERATION):

    HEAD CHANGE    HEAD CHANGE    HEAD CHANGE    HEAD CHANGE    HEAD CHANGE 
   LAYER,ROW,COL  LAYER,ROW,COL  LAYER,ROW,COL  LAYER,ROW,COL  LAYER,ROW,COL
 ---------------------------------------------------------------------------
  1  0.2785E-02  0  0.8378E-03  0  0.3237E-03  0  0.1709E-03  0  0.1988E-03
   ( 50,  1, 83)  ( 47,  1, 88)  ( 44,  1, 91)  ( 40,  1, 94)  ( 46,  1, 63)
  0  0.2318E-03  0  0.1897E-03  0  0.1309E-03  0  0.8821E-04  0  0.6826E-04
   ( 48,  1, 58)  ( 47,  1, 48)  ( 47,  1, 39)  ( 46,  1, 28)  (  1,  1, 83)
  0  0.5349E-04  0  0.4076E-04  0  0.2827E-04  0  0.1637E-04  0  0.9566E-05
   (  3,  1, 75)  (  2,  1, 79)  (  4,  1, 73)  (  5,  1, 67)  (  4,  1, 60)
  0  0.6049E-05  0  0.4028E-05  0  0.2767E-05  0  0.1618E-05  0 -0.1221E-05
   (  1,  1, 61)  (  2,  1, 56)  (  5,  1, 45)  (  6,  1, 39)  ( 43,  1,  2)
  0 -0.1104E-05  0 -0.8434E-06  1 -0.1700E-06
   ( 44,  1,  1)  ( 48,  1,  6)  ( 40,  1,  7)

 MAXIMUM RESIDUAL FOR EACH ITERATION (1 INDICATES THE FIRST INNER ITERATION):

    RESIDUAL       RESIDUAL       RESIDUAL       RESIDUAL       RESIDUAL    
   LAYER,ROW,COL  LAYER,ROW,COL  LAYER,ROW,COL  LAYER,ROW,COL  LAYER,ROW,COL
 ---------------------------------------------------------------------------
  1   18.40      0   9.481      0   4.907      0   3.901      0  -7.392    
   ( 50,  1, 87)  ( 50,  1, 77)  ( 49,  1, 99)  ( 47,  1, 99)  ( 49,  1, 99)
  0  -8.722      0   5.779      0   6.717      0   4.939      0  -3.133    
   ( 48,  1, 99)  ( 50,  1, 99)  ( 49,  1, 99)  ( 47,  1, 99)  ( 50,  1, 99)
  0  -2.736      0  -1.698      0  0.9660      0   1.002      0  0.4436    
   ( 50,  1, 99)  ( 47,  1, 99)  ( 49,  1, 99)  ( 50,  1, 99)  ( 47,  1, 99)
  0 -0.3291      0 -0.2865      0 -0.1574      0  0.1295      0  0.7359E-01
   ( 49,  1, 99)  ( 50,  1, 99)  ( 50,  1, 99)  ( 49,  1, 99)  ( 48,  1, 99)
  0  0.5991E-01  0 -0.5868E-01  1 -0.2510E-01
   ( 50,  1, 99)  ( 49,  1, 99)  ( 49,  1, 99)


 FLOW MODEL IS TRANSIENT
 FLOW MODEL CONTAINS CONSTANT-HEAD CELLS


 MAXIMUM STEPSIZE DURING WHICH ANY PARTICLE CANNOT MOVE MORE THAN ONE CELL
 =  8.699    (WHEN MIN. R.F.=1)  AT K=   1, I=   1, J=  99

 MAXIMUM STEPSIZE WHICH MEETS STABILITY CRITERION OF THE ADVECTION TERM
 (FOR PURE FINITE-DIFFERENCE OPTION, MIXELM=0) 
 =  8.497    (WHEN MIN. R.F.=1)  AT K=   1, I=   1, J=  99


 TOTAL NUMBER OF POINT SOURCES/SINKS PRESENT IN THE FLOW MODEL =       100

 MAXIMUM STEPSIZE WHICH MEETS STABILITY CRITERION OF THE SINK & SOURCE TERM
 =  122.8    (WHEN MIN. R.F.=1)  AT K=   1, I=   1, J=   1

 MAXIMUM STEPSIZE WHICH MEETS STABILITY CRITERION OF THE DISPERSION TERM
 =  1.940    (WHEN MIN. R.F.=1)  AT K=   1, I=   1, J=  99
     5 CALLS TO GCG PACKAGE FOR TRANSPORT TIME STEP  35 IN FLOW TIME STEP   1 STRESS PERIOD   1
    16 TOTAL ITERATIONS
 
 SOLVING FOR HEAD 


     2 CALLS TO PCG ROUTINE FOR TIME STEP   1 IN STRESS PERIOD    1
    23 TOTAL ITERATIONS

 MAXIMUM HEAD CHANGE FOR EACH ITERATION (1 INDICATES THE FIRST INNER ITERATION):

    HEAD CHANGE    HEAD CHANGE    HEAD CHANGE    HEAD CHANGE    HEAD CHANGE 
   LAYER,ROW,COL  LAYER,ROW,COL  LAYER,ROW,COL  LAYER,ROW,COL  LAYER,ROW,COL
 ---------------------------------------------------------------------------
  1  0.2736E-02  0  0.8155E-03  0  0.3088E-03  0  0.1539E-03  0  0.1601E-03
   ( 50,  1, 82)  ( 48,  1, 88)  ( 44,  1, 91)  ( 40,  1, 94)  ( 47,  1, 64)
  0  0.1871E-03  0  0.1627E-03  0  0.1215E-03  0  0.8837E-04  0  0.6333E-04
   ( 48,  1, 58)  ( 48,  1, 49)  ( 47,  1, 39)  ( 47,  1, 30)  (  1,  1, 83)
  0  0.5214E-04  0  0.4016E-04  0  0.2806E-04  0  0.1636E-04  0  0.9632E-05
   (  3,  1, 74)  (  2,  1, 79)  (  4,  1, 73)  (  5,  1, 67)  (  1,  1, 68)
  0  0.6050E-05  0  0.3975E-05  0  0.2855E-05  0  0.1664E-05  0 -0.1196E-05
   (  2,  1, 62)  (  4,  1, 50)  (  5,  1, 45)  (  6,  1, 39)  ( 43,  1,  2)
  0 -0.1096E-05  0 -0.8307E-06  1 -0.1652E-06
   ( 44,  1,  1)  ( 48,  1,  6)  ( 39,  1,  6)

 MAXIMUM RESIDUAL FOR EACH ITERATION (1 INDICATES THE FIRST INNER ITERATION):

    RESIDUAL       RESIDUAL       RESIDUAL       RESIDUAL       RESIDUAL    
   LAYER,ROW,COL  LAYER,ROW,COL  LAYER,ROW,COL  LAYER,ROW,COL  LAYER,ROW,COL
 ---------------------------------------------------------------------------
  1   17.88      0   9.152      0   4.422      0   3.398      0  -5.772    
   ( 50,  1, 87)  ( 50,  1, 77)  ( 49,  1, 99)  ( 47,  1, 99)  ( 50,  1, 99)
  0  -7.159      0   4.827      0   5.951      0   4.585      0  -2.941    
   ( 48,  1, 99)  ( 50,  1, 99)  ( 49,  1, 99)  ( 47,  1, 99)  ( 50,  1, 99)
  0  -2.617      0  -1.660      0  0.9529      0  0.9657      0  0.4409    
   ( 50,  1, 99)  ( 47,  1, 99)  ( 49,  1, 99)  ( 50,  1, 99)  ( 47,  1, 99)
  0 -0.3247      0 -0.2752      0 -0.1525      0  0.1285      0  0.7302E-01
   ( 49,  1, 99)  ( 50,  1, 99)  ( 50,  1, 99)  ( 49,  1, 99)  ( 48,  1, 99)
  0  0.5728E-01  0 -0.5816E-01  1 -0.2492E-01
   ( 50,  1, 99)  ( 49,  1, 99)  ( 49,  1, 99)


 FLOW MODEL IS TRANSIENT
 FLOW MODEL CONTAINS CONSTANT-HEAD CELLS


 MAXIMUM STEPSIZE DURING WHICH ANY PARTICLE CANNOT MOVE MORE THAN ONE CELL
 =  8.703    (WHEN MIN. R.F.=1)  AT K=   1, I=   1, J=  99

 MAXIMUM STEPSIZE WHICH MEETS STABILITY CRITERION OF THE ADVECTION TERM
 (FOR PURE FINITE-DIFFERENCE OPTION, MIXELM=0) 
 =  8.501    (WHEN MIN. R.F.=1)  AT K=   1, I=   1, J=  99


 TOTAL NUMBER OF POINT SOURCES/SINKS PRESENT IN THE FLOW MODEL =       100

 MAXIMUM STEPSIZE WHICH MEETS STABILITY CRITERION OF THE SINK & SOURCE TERM
 =  122.8    (WHEN MIN. R.F.=1)  AT K=   1, I=   1, J=   1

 MAXIMUM STEPSIZE WHICH MEETS STABILITY CRITERION OF THE DISPERSION TERM
 =  1.941    (WHEN MIN. R.F.=1)  AT K=   1, I=   1, J=  99
     5 CALLS TO GCG PACKAGE FOR TRANSPORT TIME STEP  36 IN FLOW TIME STEP   1 STRESS PERIOD   1
    16 TOTAL ITERATIONS
 
 SOLVING FOR HEAD 


     2 CALLS TO PCG ROUTINE FOR TIME STEP   1 IN STRESS PERIOD    1
    23 TOTAL ITERATIONS

 MAXIMUM HEAD CHANGE FOR EACH ITERATION (1 INDICATES THE FIRST INNER ITERATION):

    HEAD CHANGE    HEAD CHANGE    HEAD CHANGE    HEAD CHANGE    HEAD CHANGE 
   LAYER,ROW,COL  LAYER,ROW,COL  LAYER,ROW,COL  LAYER,ROW,COL  LAYER,ROW,COL
 ---------------------------------------------------------------------------
  1  0.2687E-02  0  0.7994E-03  0  0.2977E-03  0  0.1414E-03  0  0.1346E-03
   ( 50,  1, 82)  ( 47,  1, 87)  ( 44,  1, 91)  ( 40,  1, 94)  ( 41,  1, 83)
  0  0.1546E-03  0  0.1367E-03  0  0.1088E-03  0  0.8549E-04  0  0.5937E-04
   ( 50,  1, 72)  ( 48,  1, 49)  ( 48,  1, 40)  ( 47,  1, 30)  ( 47,  1, 21)
  0  0.5010E-04  0  0.3911E-04  0  0.2770E-04  0  0.1634E-04  0  0.9735E-05
   (  3,  1, 74)  (  2,  1, 79)  (  4,  1, 73)  (  5,  1, 66)  (  1,  1, 67)
  0  0.6065E-05  0  0.4017E-05  0  0.2883E-05  0  0.1660E-05  0 -0.1176E-05
   (  2,  1, 62)  (  4,  1, 50)  (  5,  1, 45)  (  6,  1, 39)  ( 43,  1,  2)
  0 -0.1086E-05  0 -0.8169E-06  1 -0.1643E-06
   ( 47,  1,  7)  ( 48,  1,  6)  ( 41,  1,  7)

 MAXIMUM RESIDUAL FOR EACH ITERATION (1 INDICATES THE FIRST INNER ITERATION):

    RESIDUAL       RESIDUAL       RESIDUAL       RESIDUAL       RESIDUAL    
   LAYER,ROW,COL  LAYER,ROW,COL  LAYER,ROW,COL  LAYER,ROW,COL  LAYER,ROW,COL
 ---------------------------------------------------------------------------
  1   17.53      0   8.857      0   4.040      0   3.019      0  -4.779    
   ( 50,  1, 86)  ( 50,  1, 77)  ( 49,  1, 99)  ( 47,  1, 99)  ( 50,  1, 99)
  0  -5.872      0  -4.080      0   5.175      0   4.189      0  -2.733    
   ( 48,  1, 99)  ( 45,  1, 99)  ( 49,  1, 99)  ( 47,  1, 99)  ( 50,  1, 99)
  0  -2.489      0  -1.618      0  0.9379      0  0.9308      0  0.4386    
   ( 50,  1, 99)  ( 47,  1, 99)  ( 49,  1, 99)  ( 50,  1, 99)  ( 47,  1, 99)
  0 -0.3201      0 -0.2644      0 -0.1477      0  0.1274      0  0.7231E-01
   ( 49,  1, 99)  ( 50,  1, 99)  ( 50,  1, 99)  ( 49,  1, 99)  ( 48,  1, 99)
  0  0.5457E-01  0 -0.5739E-01  1 -0.2470E-01
   ( 50,  1, 99)  ( 49,  1, 99)  ( 49,  1, 99)


 FLOW MODEL IS TRANSIENT
 FLOW MODEL CONTAINS CONSTANT-HEAD CELLS


 MAXIMUM STEPSIZE DURING WHICH ANY PARTICLE CANNOT MOVE MORE THAN ONE CELL
 =  8.708    (WHEN MIN. R.F.=1)  AT K=   1, I=   1, J=  99

 MAXIMUM STEPSIZE WHICH MEETS STABILITY CRITERION OF THE ADVECTION TERM
 (FOR PURE FINITE-DIFFERENCE OPTION, MIXELM=0) 
 =  8.506    (WHEN MIN. R.F.=1)  AT K=   1, I=   1, J=  99


 TOTAL NUMBER OF POINT SOURCES/SINKS PRESENT IN THE FLOW MODEL =       100

 MAXIMUM STEPSIZE WHICH MEETS STABILITY CRITERION OF THE SINK & SOURCE TERM
 =  122.8    (WHEN MIN. R.F.=1)  AT K=   1, I=   1, J=   1

 MAXIMUM STEPSIZE WHICH MEETS STABILITY CRITERION OF THE DISPERSION TERM
 =  1.942    (WHEN MIN. R.F.=1)  AT K=   1, I=   1, J=  99
     5 CALLS TO GCG PACKAGE FOR TRANSPORT TIME STEP  37 IN FLOW TIME STEP   1 STRESS PERIOD   1
    16 TOTAL ITERATIONS
 
 SOLVING FOR HEAD 


     2 CALLS TO PCG ROUTINE FOR TIME STEP   1 IN STRESS PERIOD    1
    23 TOTAL ITERATIONS

 MAXIMUM HEAD CHANGE FOR EACH ITERATION (1 INDICATES THE FIRST INNER ITERATION):

    HEAD CHANGE    HEAD CHANGE    HEAD CHANGE    HEAD CHANGE    HEAD CHANGE 
   LAYER,ROW,COL  LAYER,ROW,COL  LAYER,ROW,COL  LAYER,ROW,COL  LAYER,ROW,COL
 ---------------------------------------------------------------------------
  1  0.2637E-02  0  0.7862E-03  0  0.2902E-03  0  0.1317E-03  0  0.1162E-03
   ( 50,  1, 82)  ( 47,  1, 87)  ( 44,  1, 90)  ( 40,  1, 94)  ( 41,  1, 83)
  0  0.1290E-03  0  0.1120E-03  0  0.9373E-04  0  0.7941E-04  0  0.6006E-04
   ( 50,  1, 72)  ( 49,  1, 51)  ( 48,  1, 40)  ( 48,  1, 31)  ( 47,  1, 21)
  0  0.4682E-04  0  0.3786E-04  0  0.2732E-04  0  0.1635E-04  0  0.9838E-05
   (  3,  1, 74)  (  2,  1, 78)  (  4,  1, 72)  (  5,  1, 66)  (  1,  1, 67)
  0  0.6060E-05  0  0.4110E-05  0  0.2963E-05  0  0.1697E-05  0 -0.1160E-05
   (  2,  1, 62)  (  4,  1, 50)  (  5,  1, 44)  (  7,  1, 39)  ( 43,  1,  2)
  0 -0.1080E-05  0 -0.8084E-06  1  0.1668E-06
   ( 47,  1,  7)  ( 47,  1,  1)  (  4,  1, 80)

 MAXIMUM RESIDUAL FOR EACH ITERATION (1 INDICATES THE FIRST INNER ITERATION):

    RESIDUAL       RESIDUAL       RESIDUAL       RESIDUAL       RESIDUAL    
   LAYER,ROW,COL  LAYER,ROW,COL  LAYER,ROW,COL  LAYER,ROW,COL  LAYER,ROW,COL
 ---------------------------------------------------------------------------
  1   17.17      0   8.690      0   3.729      0   2.788      0  -4.011    
   ( 50,  1, 86)  ( 50,  1, 76)  ( 49,  1, 99)  ( 48,  1, 99)  ( 50,  1, 99)
  0  -4.801      0  -3.430      0   4.387      0   3.743      0  -2.501    
   ( 48,  1, 99)  ( 45,  1, 99)  ( 49,  1, 99)  ( 47,  1, 99)  ( 50,  1, 99)
  0  -2.356      0  -1.569      0  0.9198      0  0.8971      0  0.4368    
   ( 49,  1, 99)  ( 47,  1, 99)  ( 49,  1, 99)  ( 50,  1, 99)  ( 47,  1, 99)
  0 -0.3158      0 -0.2548      0 -0.1435      0  0.1268      0  0.7189E-01
   ( 49,  1, 99)  ( 50,  1, 99)  ( 50,  1, 99)  ( 49,  1, 99)  ( 48,  1, 99)
  0  0.5226E-01  0 -0.5693E-01  1 -0.2469E-01
   ( 50,  1, 99)  ( 49,  1, 99)  ( 49,  1, 99)


 FLOW MODEL IS TRANSIENT
 FLOW MODEL CONTAINS CONSTANT-HEAD CELLS


 MAXIMUM STEPSIZE DURING WHICH ANY PARTICLE CANNOT MOVE MORE THAN ONE CELL
 =  8.712    (WHEN MIN. R.F.=1)  AT K=   1, I=   1, J=  99

 MAXIMUM STEPSIZE WHICH MEETS STABILITY CRITERION OF THE ADVECTION TERM
 (FOR PURE FINITE-DIFFERENCE OPTION, MIXELM=0) 
 =  8.510    (WHEN MIN. R.F.=1)  AT K=   1, I=   1, J=  99


 TOTAL NUMBER OF POINT SOURCES/SINKS PRESENT IN THE FLOW MODEL =       100

 MAXIMUM STEPSIZE WHICH MEETS STABILITY CRITERION OF THE SINK & SOURCE TERM
 =  122.8    (WHEN MIN. R.F.=1)  AT K=   1, I=   1, J=   1

 MAXIMUM STEPSIZE WHICH MEETS STABILITY CRITERION OF THE DISPERSION TERM
 =  1.943    (WHEN MIN. R.F.=1)  AT K=   1, I=   1, J=  99
     5 CALLS TO GCG PACKAGE FOR TRANSPORT TIME STEP  38 IN FLOW TIME STEP   1 STRESS PERIOD   1
    16 TOTAL ITERATIONS
 
 SOLVING FOR HEAD 


     2 CALLS TO PCG ROUTINE FOR TIME STEP   1 IN STRESS PERIOD    1
    23 TOTAL ITERATIONS

 MAXIMUM HEAD CHANGE FOR EACH ITERATION (1 INDICATES THE FIRST INNER ITERATION):

    HEAD CHANGE    HEAD CHANGE    HEAD CHANGE    HEAD CHANGE    HEAD CHANGE 
   LAYER,ROW,COL  LAYER,ROW,COL  LAYER,ROW,COL  LAYER,ROW,COL  LAYER,ROW,COL
 ---------------------------------------------------------------------------
  1  0.2597E-02  0  0.7742E-03  0  0.2846E-03  0  0.1253E-03  0  0.1027E-03
   ( 50,  1, 81)  ( 48,  1, 87)  ( 44,  1, 90)  ( 40,  1, 93)  ( 41,  1, 82)
  0  0.1092E-03  0  0.9151E-04  0  0.7868E-04  0  0.7100E-04  0  0.5861E-04
   ( 50,  1, 71)  ( 49,  1, 51)  ( 49,  1, 42)  ( 48,  1, 31)  ( 48,  1, 22)
  0  0.4237E-04  0  0.3606E-04  0  0.2672E-04  0  0.1630E-04  0  0.9923E-05
   (  3,  1, 74)  (  2,  1, 78)  (  4,  1, 72)  (  6,  1, 67)  (  1,  1, 67)
  0  0.6074E-05  0  0.4158E-05  0  0.2990E-05  0  0.1700E-05  0 -0.1143E-05
   (  2,  1, 62)  (  4,  1, 49)  (  5,  1, 44)  (  7,  1, 39)  ( 43,  1,  2)
  0 -0.1068E-05  0 -0.7988E-06  1 -0.1716E-06
   ( 47,  1,  7)  ( 47,  1,  1)  ( 29,  1,  8)

 MAXIMUM RESIDUAL FOR EACH ITERATION (1 INDICATES THE FIRST INNER ITERATION):

    RESIDUAL       RESIDUAL       RESIDUAL       RESIDUAL       RESIDUAL    
   LAYER,ROW,COL  LAYER,ROW,COL  LAYER,ROW,COL  LAYER,ROW,COL  LAYER,ROW,COL
 ---------------------------------------------------------------------------
  1   16.83      0   8.556      0   3.473      0   2.620      0  -3.446    
   ( 50,  1, 85)  ( 50,  1, 76)  ( 49,  1, 99)  ( 48,  1, 99)  ( 50,  1, 99)
  0  -3.978      0  -2.879      0   3.659      0   3.282      0  -2.252    
   ( 48,  1, 99)  ( 45,  1, 99)  ( 49,  1, 99)  ( 47,  1, 99)  ( 50,  1, 99)
  0  -2.224      0  -1.513      0  0.8987      0  0.8636      0  0.4346    
   ( 49,  1, 99)  ( 47,  1, 99)  ( 49,  1, 99)  ( 50,  1, 99)  ( 47,  1, 99)
  0 -0.3113      0 -0.2453      0 -0.1413      0  0.1260      0  0.7122E-01
   ( 49,  1, 99)  ( 50,  1, 99)  ( 47,  1, 99)  ( 49,  1, 99)  ( 48,  1, 99)
  0  0.4986E-01  0 -0.5614E-01  1 -0.2449E-01
   ( 50,  1, 99)  ( 49,  1, 99)  ( 49,  1, 99)


 FLOW MODEL IS TRANSIENT
 FLOW MODEL CONTAINS CONSTANT-HEAD CELLS


 MAXIMUM STEPSIZE DURING WHICH ANY PARTICLE CANNOT MOVE MORE THAN ONE CELL
 =  8.717    (WHEN MIN. R.F.=1)  AT K=   1, I=   1, J=  99

 MAXIMUM STEPSIZE WHICH MEETS STABILITY CRITERION OF THE ADVECTION TERM
 (FOR PURE FINITE-DIFFERENCE OPTION, MIXELM=0) 
 =  8.515    (WHEN MIN. R.F.=1)  AT K=   1, I=   1, J=  99


 TOTAL NUMBER OF POINT SOURCES/SINKS PRESENT IN THE FLOW MODEL =       100

 MAXIMUM STEPSIZE WHICH MEETS STABILITY CRITERION OF THE SINK & SOURCE TERM
 =  122.8    (WHEN MIN. R.F.=1)  AT K=   1, I=   1, J=   1

 MAXIMUM STEPSIZE WHICH MEETS STABILITY CRITERION OF THE DISPERSION TERM
 =  1.944    (WHEN MIN. R.F.=1)  AT K=   1, I=   1, J=  99
     5 CALLS TO GCG PACKAGE FOR TRANSPORT TIME STEP  39 IN FLOW TIME STEP   1 STRESS PERIOD   1
    16 TOTAL ITERATIONS
 
 SOLVING FOR HEAD 


     2 CALLS TO PCG ROUTINE FOR TIME STEP   1 IN STRESS PERIOD    1
    23 TOTAL ITERATIONS

 MAXIMUM HEAD CHANGE FOR EACH ITERATION (1 INDICATES THE FIRST INNER ITERATION):

    HEAD CHANGE    HEAD CHANGE    HEAD CHANGE    HEAD CHANGE    HEAD CHANGE 
   LAYER,ROW,COL  LAYER,ROW,COL  LAYER,ROW,COL  LAYER,ROW,COL  LAYER,ROW,COL
 ---------------------------------------------------------------------------
  1  0.2560E-02  0  0.7651E-03  0  0.2799E-03  0  0.1205E-03  0  0.9292E-04
   ( 50,  1, 81)  ( 48,  1, 87)  ( 44,  1, 90)  ( 40,  1, 93)  ( 41,  1, 82)
  0  0.9361E-04  0  0.7438E-04  0  0.6437E-04  0  0.6091E-04  0  0.5477E-04
   ( 50,  1, 71)  ( 49,  1, 51)  ( 49,  1, 42)  ( 49,  1, 33)  ( 48,  1, 22)
  0  0.3731E-04  0  0.3356E-04  0  0.2582E-04  0  0.1617E-04  0  0.9975E-05
   ( 49,  1, 15)  (  2,  1, 78)  (  4,  1, 72)  (  6,  1, 67)  (  1,  1, 67)
  0  0.6080E-05  0  0.4246E-05  0  0.3051E-05  0  0.1735E-05  0 -0.1125E-05
   (  2,  1, 62)  (  4,  1, 49)  (  5,  1, 44)  (  7,  1, 39)  ( 43,  1,  2)
  0 -0.1055E-05  0 -0.7883E-06  1 -0.1734E-06
   ( 47,  1,  7)  ( 47,  1,  1)  ( 29,  1,  8)

 MAXIMUM RESIDUAL FOR EACH ITERATION (1 INDICATES THE FIRST INNER ITERATION):

    RESIDUAL       RESIDUAL       RESIDUAL       RESIDUAL       RESIDUAL    
   LAYER,ROW,COL  LAYER,ROW,COL  LAYER,ROW,COL  LAYER,ROW,COL  LAYER,ROW,COL
 ---------------------------------------------------------------------------
  1   16.60      0   8.400      0   3.251      0   2.479      0  -3.017    
   ( 50,  1, 85)  ( 50,  1, 76)  ( 49,  1, 99)  ( 48,  1, 99)  ( 50,  1, 99)
  0  -3.371      0  -2.407      0   2.991      0   2.805      0   2.036    
   ( 49,  1, 99)  ( 45,  1, 99)  ( 49,  1, 99)  ( 47,  1, 99)  ( 44,  1, 99)
  0  -2.067      0  -1.444      0  0.8733      0  0.8288      0  0.4319    
   ( 49,  1, 99)  ( 47,  1, 99)  ( 49,  1, 99)  ( 50,  1, 99)  ( 47,  1, 99)
  0 -0.3073      0 -0.2363      0 -0.1410      0  0.1253      0  0.7072E-01
   ( 49,  1, 99)  ( 50,  1, 99)  ( 47,  1, 99)  ( 49,  1, 99)  ( 48,  1, 99)
  0  0.4768E-01  0 -0.5551E-01  1 -0.2435E-01
   ( 50,  1, 99)  ( 49,  1, 99)  ( 49,  1, 99)


 FLOW MODEL IS TRANSIENT
 FLOW MODEL CONTAINS CONSTANT-HEAD CELLS


 MAXIMUM STEPSIZE DURING WHICH ANY PARTICLE CANNOT MOVE MORE THAN ONE CELL
 =  8.722    (WHEN MIN. R.F.=1)  AT K=   1, I=   1, J=  99

 MAXIMUM STEPSIZE WHICH MEETS STABILITY CRITERION OF THE ADVECTION TERM
 (FOR PURE FINITE-DIFFERENCE OPTION, MIXELM=0) 
 =  8.520    (WHEN MIN. R.F.=1)  AT K=   1, I=   1, J=  99


 TOTAL NUMBER OF POINT SOURCES/SINKS PRESENT IN THE FLOW MODEL =       100

 MAXIMUM STEPSIZE WHICH MEETS STABILITY CRITERION OF THE SINK & SOURCE TERM
 =  122.8    (WHEN MIN. R.F.=1)  AT K=   1, I=   1, J=   1

 MAXIMUM STEPSIZE WHICH MEETS STABILITY CRITERION OF THE DISPERSION TERM
 =  1.945    (WHEN MIN. R.F.=1)  AT K=   1, I=   1, J=  99
     5 CALLS TO GCG PACKAGE FOR TRANSPORT TIME STEP  40 IN FLOW TIME STEP   1 STRESS PERIOD   1
    16 TOTAL ITERATIONS
 
 SOLVING FOR HEAD 


     2 CALLS TO PCG ROUTINE FOR TIME STEP   1 IN STRESS PERIOD    1
    23 TOTAL ITERATIONS

 MAXIMUM HEAD CHANGE FOR EACH ITERATION (1 INDICATES THE FIRST INNER ITERATION):

    HEAD CHANGE    HEAD CHANGE    HEAD CHANGE    HEAD CHANGE    HEAD CHANGE 
   LAYER,ROW,COL  LAYER,ROW,COL  LAYER,ROW,COL  LAYER,ROW,COL  LAYER,ROW,COL
 ---------------------------------------------------------------------------
  1  0.2521E-02  0  0.7562E-03  0  0.2762E-03  0  0.1171E-03  0  0.8559E-04
   ( 50,  1, 81)  ( 48,  1, 87)  ( 44,  1, 90)  ( 40,  1, 93)  ( 41,  1, 82)
  0  0.8196E-04  0  0.6171E-04  0  0.5219E-04  0  0.5076E-04  0  0.4916E-04
   ( 50,  1, 71)  ( 50,  1, 70)  ( 49,  1, 42)  ( 50,  1, 34)  ( 49,  1, 23)
  0  0.3663E-04  0  0.3035E-04  0  0.2452E-04  0  0.1592E-04  0  0.1000E-04
   ( 50,  1, 16)  (  2,  1, 78)  (  4,  1, 72)  (  6,  1, 67)  (  1,  1, 67)
  0  0.6147E-05  0  0.4295E-05  0  0.3075E-05  0  0.1754E-05  0 -0.1106E-05
   (  3,  1, 54)  (  4,  1, 49)  (  5,  1, 44)  (  1,  1, 45)  ( 43,  1,  2)
  0 -0.1041E-05  0 -0.7776E-06  1 -0.1814E-06
   ( 47,  1,  7)  ( 47,  1,  1)  ( 30,  1,  8)

 MAXIMUM RESIDUAL FOR EACH ITERATION (1 INDICATES THE FIRST INNER ITERATION):

    RESIDUAL       RESIDUAL       RESIDUAL       RESIDUAL       RESIDUAL    
   LAYER,ROW,COL  LAYER,ROW,COL  LAYER,ROW,COL  LAYER,ROW,COL  LAYER,ROW,COL
 ---------------------------------------------------------------------------
  1   16.35      0   8.344      0   3.062      0   2.359      0  -2.702    
   ( 50,  1, 85)  ( 50,  1, 75)  ( 49,  1, 99)  ( 48,  1, 99)  ( 50,  1, 99)
  0  -2.935      0  -2.037      0   2.428      0   2.357      0   1.807    
   ( 49,  1, 99)  ( 45,  1, 99)  ( 49,  1, 99)  ( 47,  1, 99)  ( 44,  1, 99)
  0  -1.889      0  -1.365      0  0.8423      0  0.7937      0  0.4288    
   ( 49,  1, 99)  ( 47,  1, 99)  ( 49,  1, 99)  ( 50,  1, 99)  ( 47,  1, 99)
  0 -0.3029      0 -0.2335      0 -0.1407      0  0.1246      0  0.7023E-01
   ( 49,  1, 99)  ( 48,  1, 99)  ( 47,  1, 99)  ( 49,  1, 99)  ( 48,  1, 99)
  0  0.4567E-01  0 -0.5484E-01  1 -0.2420E-01
   ( 50,  1, 99)  ( 49,  1, 99)  ( 49,  1, 99)


 FLOW MODEL IS TRANSIENT
 FLOW MODEL CONTAINS CONSTANT-HEAD CELLS


 MAXIMUM STEPSIZE DURING WHICH ANY PARTICLE CANNOT MOVE MORE THAN ONE CELL
 =  8.727    (WHEN MIN. R.F.=1)  AT K=   1, I=   1, J=  99

 MAXIMUM STEPSIZE WHICH MEETS STABILITY CRITERION OF THE ADVECTION TERM
 (FOR PURE FINITE-DIFFERENCE OPTION, MIXELM=0) 
 =  8.525    (WHEN MIN. R.F.=1)  AT K=   1, I=   1, J=  99


 TOTAL NUMBER OF POINT SOURCES/SINKS PRESENT IN THE FLOW MODEL =       100

 MAXIMUM STEPSIZE WHICH MEETS STABILITY CRITERION OF THE SINK & SOURCE TERM
 =  122.8    (WHEN MIN. R.F.=1)  AT K=   1, I=   1, J=   1

 MAXIMUM STEPSIZE WHICH MEETS STABILITY CRITERION OF THE DISPERSION TERM
 =  1.946    (WHEN MIN. R.F.=1)  AT K=   1, I=   1, J=  99
     5 CALLS TO GCG PACKAGE FOR TRANSPORT TIME STEP  41 IN FLOW TIME STEP   1 STRESS PERIOD   1
    16 TOTAL ITERATIONS
 
 SOLVING FOR HEAD 


     2 CALLS TO PCG ROUTINE FOR TIME STEP   1 IN STRESS PERIOD    1
    23 TOTAL ITERATIONS

 MAXIMUM HEAD CHANGE FOR EACH ITERATION (1 INDICATES THE FIRST INNER ITERATION):

    HEAD CHANGE    HEAD CHANGE    HEAD CHANGE    HEAD CHANGE    HEAD CHANGE 
   LAYER,ROW,COL  LAYER,ROW,COL  LAYER,ROW,COL  LAYER,ROW,COL  LAYER,ROW,COL
 ---------------------------------------------------------------------------
  1  0.2483E-02  0  0.7470E-03  0  0.2739E-03  0  0.1147E-03  0  0.8008E-04
   ( 50,  1, 80)  ( 48,  1, 87)  ( 44,  1, 89)  ( 40,  1, 92)  ( 41,  1, 82)
  0  0.7342E-04  0  0.5380E-04  0  0.4263E-04  0  0.4158E-04  0  0.4259E-04
   ( 50,  1, 71)  ( 50,  1, 70)  ( 50,  1, 43)  ( 50,  1, 34)  ( 50,  1, 25)
  0  0.3455E-04  0  0.2676E-04  0  0.2284E-04  0  0.1550E-04  0  0.9968E-05
   ( 50,  1, 16)  (  2,  1, 77)  (  5,  1, 73)  (  6,  1, 67)  (  1,  1, 67)
  0  0.6248E-05  0  0.4362E-05  0  0.3118E-05  0  0.1792E-05  0 -0.1082E-05
   (  4,  1, 55)  (  4,  1, 49)  (  5,  1, 44)  (  1,  1, 45)  ( 43,  1,  2)
  0 -0.1021E-05  0 -0.7633E-06  1 -0.1826E-06
   ( 47,  1,  7)  ( 47,  1,  1)  ( 30,  1,  8)

 MAXIMUM RESIDUAL FOR EACH ITERATION (1 INDICATES THE FIRST INNER ITERATION):

    RESIDUAL       RESIDUAL       RESIDUAL       RESIDUAL       RESIDUAL    
   LAYER,ROW,COL  LAYER,ROW,COL  LAYER,ROW,COL  LAYER,ROW,COL  LAYER,ROW,COL
 ---------------------------------------------------------------------------
  1   16.09      0   8.285      0   2.897      0   2.258      0  -2.470    
   ( 50,  1, 84)  ( 50,  1, 75)  ( 49,  1, 99)  ( 48,  1, 99)  ( 50,  1, 99)
  0  -2.611      0  -1.760      0   1.977      0   1.959      0   1.575    
   ( 49,  1, 99)  ( 46,  1, 99)  ( 49,  1, 99)  ( 47,  1, 99)  ( 44,  1, 99)
  0  -1.697      0  -1.273      0  0.8056      0  0.7565      0  0.4238    
   ( 49,  1, 99)  ( 47,  1, 99)  ( 49,  1, 99)  ( 50,  1, 99)  ( 47,  1, 99)
  0 -0.2987      0 -0.2309      0 -0.1396      0  0.1237      0  0.6965E-01
   ( 49,  1, 99)  ( 48,  1, 99)  ( 47,  1, 99)  ( 49,  1, 99)  ( 48,  1, 99)
  0  0.4369E-01  0 -0.5400E-01  1 -0.2392E-01
   ( 50,  1, 99)  ( 49,  1, 99)  ( 49,  1, 99)


 FLOW MODEL IS TRANSIENT
 FLOW MODEL CONTAINS CONSTANT-HEAD CELLS


 MAXIMUM STEPSIZE DURING WHICH ANY PARTICLE CANNOT MOVE MORE THAN ONE CELL
 =  8.732    (WHEN MIN. R.F.=1)  AT K=   1, I=   1, J=  99

 MAXIMUM STEPSIZE WHICH MEETS STABILITY CRITERION OF THE ADVECTION TERM
 (FOR PURE FINITE-DIFFERENCE OPTION, MIXELM=0) 
 =  8.530    (WHEN MIN. R.F.=1)  AT K=   1, I=   1, J=  99


 TOTAL NUMBER OF POINT SOURCES/SINKS PRESENT IN THE FLOW MODEL =       100

 MAXIMUM STEPSIZE WHICH MEETS STABILITY CRITERION OF THE SINK & SOURCE TERM
 =  122.8    (WHEN MIN. R.F.=1)  AT K=   1, I=   1, J=   1

 MAXIMUM STEPSIZE WHICH MEETS STABILITY CRITERION OF THE DISPERSION TERM
 =  1.947    (WHEN MIN. R.F.=1)  AT K=   1, I=   1, J=  99
     5 CALLS TO GCG PACKAGE FOR TRANSPORT TIME STEP  42 IN FLOW TIME STEP   1 STRESS PERIOD   1
    16 TOTAL ITERATIONS
 
 SOLVING FOR HEAD 


     2 CALLS TO PCG ROUTINE FOR TIME STEP   1 IN STRESS PERIOD    1
    23 TOTAL ITERATIONS

 MAXIMUM HEAD CHANGE FOR EACH ITERATION (1 INDICATES THE FIRST INNER ITERATION):

    HEAD CHANGE    HEAD CHANGE    HEAD CHANGE    HEAD CHANGE    HEAD CHANGE 
   LAYER,ROW,COL  LAYER,ROW,COL  LAYER,ROW,COL  LAYER,ROW,COL  LAYER,ROW,COL
 ---------------------------------------------------------------------------
  1  0.2454E-02  0  0.7414E-03  0  0.2723E-03  0  0.1133E-03  0  0.7607E-04
   ( 50,  1, 80)  ( 48,  1, 86)  ( 44,  1, 89)  ( 40,  1, 92)  ( 41,  1, 81)
  0  0.6679E-04  0  0.4747E-04  0  0.3487E-04  0  0.3342E-04  0  0.3553E-04
   ( 50,  1, 71)  ( 50,  1, 70)  ( 50,  1, 43)  ( 50,  1, 34)  ( 50,  1, 25)
  0  0.3117E-04  0  0.2564E-04  0  0.2076E-04  0  0.1487E-04  0  0.9884E-05
   ( 50,  1, 16)  ( 49,  1,  1)  (  5,  1, 73)  (  6,  1, 67)  (  1,  1, 67)
  0  0.6309E-05  0  0.4387E-05  0  0.3140E-05  0  0.1815E-05  0 -0.1056E-05
   (  4,  1, 54)  (  4,  1, 49)  (  5,  1, 43)  (  1,  1, 45)  ( 43,  1,  2)
  0 -0.1004E-05  0 -0.7516E-06  1 -0.1890E-06
   ( 47,  1,  7)  ( 47,  1,  1)  ( 30,  1,  8)

 MAXIMUM RESIDUAL FOR EACH ITERATION (1 INDICATES THE FIRST INNER ITERATION):

    RESIDUAL       RESIDUAL       RESIDUAL       RESIDUAL       RESIDUAL    
   LAYER,ROW,COL  LAYER,ROW,COL  LAYER,ROW,COL  LAYER,ROW,COL  LAYER,ROW,COL
 ---------------------------------------------------------------------------
  1   15.92      0   8.187      0  -2.791      0   2.169      0  -2.288    
   ( 50,  1, 84)  ( 50,  1, 75)  ( 49,  1, 73)  ( 48,  1, 99)  ( 50,  1, 99)
  0  -2.361      0  -1.559      0   1.609      0   1.607      0   1.340    
   ( 49,  1, 99)  ( 46,  1, 99)  ( 49,  1, 99)  ( 47,  1, 99)  ( 44,  1, 99)
  0  -1.488      0  -1.165      0  0.7606      0  0.7160      0  0.4174    
   ( 49,  1, 99)  ( 47,  1, 99)  ( 49,  1, 99)  ( 50,  1, 99)  ( 47,  1, 99)
  0 -0.2941      0 -0.2281      0 -0.1385      0  0.1230      0  0.6922E-01
   ( 49,  1, 99)  ( 48,  1, 99)  ( 47,  1, 99)  ( 49,  1, 99)  ( 48,  1, 99)
  0  0.4193E-01  0 -0.5334E-01  1 -0.2370E-01
   ( 50,  1, 99)  ( 49,  1, 99)  ( 49,  1, 99)


 FLOW MODEL IS TRANSIENT
 FLOW MODEL CONTAINS CONSTANT-HEAD CELLS


 MAXIMUM STEPSIZE DURING WHICH ANY PARTICLE CANNOT MOVE MORE THAN ONE CELL
 =  8.738    (WHEN MIN. R.F.=1)  AT K=   1, I=   1, J=  99

 MAXIMUM STEPSIZE WHICH MEETS STABILITY CRITERION OF THE ADVECTION TERM
 (FOR PURE FINITE-DIFFERENCE OPTION, MIXELM=0) 
 =  8.535    (WHEN MIN. R.F.=1)  AT K=   1, I=   1, J=  99


 TOTAL NUMBER OF POINT SOURCES/SINKS PRESENT IN THE FLOW MODEL =       100

 MAXIMUM STEPSIZE WHICH MEETS STABILITY CRITERION OF THE SINK & SOURCE TERM
 =  122.8    (WHEN MIN. R.F.=1)  AT K=   1, I=   1, J=   1

 MAXIMUM STEPSIZE WHICH MEETS STABILITY CRITERION OF THE DISPERSION TERM
 =  1.949    (WHEN MIN. R.F.=1)  AT K=   1, I=   1, J=  99
     5 CALLS TO GCG PACKAGE FOR TRANSPORT TIME STEP  43 IN FLOW TIME STEP   1 STRESS PERIOD   1
    16 TOTAL ITERATIONS
 
 SOLVING FOR HEAD 


     2 CALLS TO PCG ROUTINE FOR TIME STEP   1 IN STRESS PERIOD    1
    22 TOTAL ITERATIONS

 MAXIMUM HEAD CHANGE FOR EACH ITERATION (1 INDICATES THE FIRST INNER ITERATION):

    HEAD CHANGE    HEAD CHANGE    HEAD CHANGE    HEAD CHANGE    HEAD CHANGE 
   LAYER,ROW,COL  LAYER,ROW,COL  LAYER,ROW,COL  LAYER,ROW,COL  LAYER,ROW,COL
 ---------------------------------------------------------------------------
  1  0.2423E-02  0  0.7355E-03  0  0.2707E-03  0  0.1123E-03  0  0.7323E-04
   ( 50,  1, 80)  ( 48,  1, 86)  ( 44,  1, 89)  ( 40,  1, 92)  ( 41,  1, 81)
  0  0.6192E-04  0  0.4269E-04  0  0.2900E-04  0  0.2679E-04  0  0.2887E-04
   ( 50,  1, 70)  ( 50,  1, 70)  ( 50,  1, 43)  ( 50,  1, 34)  ( 50,  1, 25)
  0  0.2700E-04  0  0.2407E-04  0  0.1908E-04  0  0.1397E-04  0  0.9783E-05
   ( 50,  1, 16)  ( 49,  1,  1)  ( 36,  1,  2)  (  6,  1, 66)  (  3,  1, 59)
  0  0.6389E-05  0  0.4446E-05  0  0.3198E-05  0  0.1856E-05  0 -0.1026E-05
   (  4,  1, 54)  (  4,  1, 48)  (  5,  1, 43)  (  1,  1, 45)  ( 43,  1,  2)
  0 -0.9797E-06  1 -0.2836E-06
   ( 47,  1,  7)  ( 37,  1,  7)

 MAXIMUM RESIDUAL FOR EACH ITERATION (1 INDICATES THE FIRST INNER ITERATION):

    RESIDUAL       RESIDUAL       RESIDUAL       RESIDUAL       RESIDUAL    
   LAYER,ROW,COL  LAYER,ROW,COL  LAYER,ROW,COL  LAYER,ROW,COL  LAYER,ROW,COL
 ---------------------------------------------------------------------------
  1   15.72      0   8.163      0  -2.785      0   2.088      0  -2.150    
   ( 50,  1, 84)  ( 50,  1, 74)  ( 49,  1, 73)  ( 48,  1, 99)  ( 50,  1, 99)
  0  -2.173      0  -1.407      0   1.328      0   1.317      0   1.125    
   ( 49,  1, 99)  ( 46,  1, 99)  ( 49,  1, 99)  ( 47,  1, 99)  ( 44,  1, 99)
  0  -1.279      0  -1.046      0  0.7069      0  0.6735      0  0.4085    
   ( 49,  1, 99)  ( 47,  1, 99)  ( 49,  1, 99)  ( 48,  1, 99)  ( 47,  1, 99)
  0 -0.2889      0 -0.2248      0 -0.1369      0  0.1220      0  0.6873E-01
   ( 49,  1, 99)  ( 48,  1, 99)  ( 47,  1, 99)  ( 49,  1, 99)  ( 48,  1, 99)
  0  0.4023E-01  1  0.2195E-01
   ( 50,  1, 99)  ( 50,  1, 99)


 FLOW MODEL IS TRANSIENT
 FLOW MODEL CONTAINS CONSTANT-HEAD CELLS


 MAXIMUM STEPSIZE DURING WHICH ANY PARTICLE CANNOT MOVE MORE THAN ONE CELL
 =  8.743    (WHEN MIN. R.F.=1)  AT K=   1, I=   1, J=  99

 MAXIMUM STEPSIZE WHICH MEETS STABILITY CRITERION OF THE ADVECTION TERM
 (FOR PURE FINITE-DIFFERENCE OPTION, MIXELM=0) 
 =  8.540    (WHEN MIN. R.F.=1)  AT K=   1, I=   1, J=  99


 TOTAL NUMBER OF POINT SOURCES/SINKS PRESENT IN THE FLOW MODEL =       100

 MAXIMUM STEPSIZE WHICH MEETS STABILITY CRITERION OF THE SINK & SOURCE TERM
 =  122.8    (WHEN MIN. R.F.=1)  AT K=   1, I=   1, J=   1

 MAXIMUM STEPSIZE WHICH MEETS STABILITY CRITERION OF THE DISPERSION TERM
 =  1.950    (WHEN MIN. R.F.=1)  AT K=   1, I=   1, J=  99
     5 CALLS TO GCG PACKAGE FOR TRANSPORT TIME STEP  44 IN FLOW TIME STEP   1 STRESS PERIOD   1
    16 TOTAL ITERATIONS
 
 SOLVING FOR HEAD 


     2 CALLS TO PCG ROUTINE FOR TIME STEP   1 IN STRESS PERIOD    1
    22 TOTAL ITERATIONS

 MAXIMUM HEAD CHANGE FOR EACH ITERATION (1 INDICATES THE FIRST INNER ITERATION):

    HEAD CHANGE    HEAD CHANGE    HEAD CHANGE    HEAD CHANGE    HEAD CHANGE 
   LAYER,ROW,COL  LAYER,ROW,COL  LAYER,ROW,COL  LAYER,ROW,COL  LAYER,ROW,COL
 ---------------------------------------------------------------------------
  1  0.2389E-02  0  0.7289E-03  0  0.2691E-03  0  0.1114E-03  0  0.7072E-04
   ( 50,  1, 80)  ( 48,  1, 86)  ( 44,  1, 89)  ( 40,  1, 92)  ( 41,  1, 81)
  0  0.5807E-04  0  0.3882E-04  0  0.2428E-04  0  0.2123E-04  0  0.2253E-04
   ( 50,  1, 70)  ( 50,  1, 70)  ( 50,  1, 43)  ( 50,  1, 34)  ( 50,  1, 25)
  0  0.2223E-04  0  0.2164E-04  0  0.1818E-04  0  0.1269E-04  0  0.9479E-05
   ( 40,  1, 26)  ( 50,  1,  1)  ( 36,  1,  2)  (  6,  1, 66)  (  1,  1, 66)
  0  0.6163E-05  0  0.4390E-05  0  0.3211E-05  0  0.1904E-05  0  0.1060E-05
   (  2,  1, 60)  (  4,  1, 49)  (  4,  1, 44)  (  5,  1, 39)  (  4,  1, 34)
  0 -0.9426E-06  1 -0.2797E-06
   ( 47,  1,  7)  ( 37,  1,  7)

 MAXIMUM RESIDUAL FOR EACH ITERATION (1 INDICATES THE FIRST INNER ITERATION):

    RESIDUAL       RESIDUAL       RESIDUAL       RESIDUAL       RESIDUAL    
   LAYER,ROW,COL  LAYER,ROW,COL  LAYER,ROW,COL  LAYER,ROW,COL  LAYER,ROW,COL
 ---------------------------------------------------------------------------
  1   15.50      0   8.135      0  -2.762      0   2.013      0  -2.034    
   ( 50,  1, 83)  ( 50,  1, 74)  ( 49,  1, 73)  ( 48,  1, 99)  ( 50,  1, 99)
  0  -2.023      0  -1.288      0   1.098      0   1.069      0  0.9213    
   ( 49,  1, 99)  ( 46,  1, 99)  ( 49,  1, 99)  ( 47,  1, 99)  ( 44,  1, 99)
  0  -1.062      0 -0.9131      0 -0.6335      0  0.6342      0  0.4048    
   ( 49,  1, 99)  ( 47,  1, 99)  ( 44,  1, 99)  ( 48,  1, 99)  ( 47,  1, 99)
  0 -0.2792      0 -0.2218      0 -0.1384      0  0.1213      0  0.6874E-01
   ( 49,  1, 99)  ( 48,  1, 99)  ( 47,  1, 99)  ( 49,  1, 99)  ( 48,  1, 99)
  0  0.3957E-01  1  0.2175E-01
   ( 50,  1, 99)  ( 50,  1, 99)


 FLOW MODEL IS TRANSIENT
 FLOW MODEL CONTAINS CONSTANT-HEAD CELLS


 MAXIMUM STEPSIZE DURING WHICH ANY PARTICLE CANNOT MOVE MORE THAN ONE CELL
 =  8.748    (WHEN MIN. R.F.=1)  AT K=   1, I=   1, J=  99

 MAXIMUM STEPSIZE WHICH MEETS STABILITY CRITERION OF THE ADVECTION TERM
 (FOR PURE FINITE-DIFFERENCE OPTION, MIXELM=0) 
 =  8.545    (WHEN MIN. R.F.=1)  AT K=   1, I=   1, J=  99


 TOTAL NUMBER OF POINT SOURCES/SINKS PRESENT IN THE FLOW MODEL =       100

 MAXIMUM STEPSIZE WHICH MEETS STABILITY CRITERION OF THE SINK & SOURCE TERM
 =  122.8    (WHEN MIN. R.F.=1)  AT K=   1, I=   1, J=   1

 MAXIMUM STEPSIZE WHICH MEETS STABILITY CRITERION OF THE DISPERSION TERM
 =  1.951    (WHEN MIN. R.F.=1)  AT K=   1, I=   1, J=  99
     5 CALLS TO GCG PACKAGE FOR TRANSPORT TIME STEP  45 IN FLOW TIME STEP   1 STRESS PERIOD   1
    16 TOTAL ITERATIONS
 
 SOLVING FOR HEAD 


     2 CALLS TO PCG ROUTINE FOR TIME STEP   1 IN STRESS PERIOD    1
    22 TOTAL ITERATIONS

 MAXIMUM HEAD CHANGE FOR EACH ITERATION (1 INDICATES THE FIRST INNER ITERATION):

    HEAD CHANGE    HEAD CHANGE    HEAD CHANGE    HEAD CHANGE    HEAD CHANGE 
   LAYER,ROW,COL  LAYER,ROW,COL  LAYER,ROW,COL  LAYER,ROW,COL  LAYER,ROW,COL
 ---------------------------------------------------------------------------
  1  0.2361E-02  0  0.7219E-03  0  0.2676E-03  0  0.1109E-03  0  0.6894E-04
   ( 50,  1, 79)  ( 48,  1, 86)  ( 44,  1, 88)  ( 40,  1, 91)  ( 41,  1, 80)
  0  0.5549E-04  0  0.3627E-04  0  0.2151E-04  0  0.1762E-04  0  0.1816E-04
   ( 50,  1, 70)  ( 50,  1, 70)  ( 47,  1, 69)  ( 50,  1, 34)  ( 50,  1, 25)
  0  0.1832E-04  0  0.1872E-04  0  0.1700E-04  0  0.1206E-04  0  0.8941E-05
   ( 40,  1, 26)  ( 50,  1,  1)  ( 42,  1, 14)  ( 40,  1,  1)  (  1,  1, 66)
  0  0.6056E-05  0  0.4372E-05  0  0.3238E-05  0  0.1946E-05  0  0.1084E-05
   (  4,  1, 54)  (  4,  1, 49)  (  5,  1, 44)  (  5,  1, 39)  (  5,  1, 34)
  0 -0.9179E-06  1 -0.2831E-06
   ( 47,  1,  7)  ( 38,  1,  7)

 MAXIMUM RESIDUAL FOR EACH ITERATION (1 INDICATES THE FIRST INNER ITERATION):

    RESIDUAL       RESIDUAL       RESIDUAL       RESIDUAL       RESIDUAL    
   LAYER,ROW,COL  LAYER,ROW,COL  LAYER,ROW,COL  LAYER,ROW,COL  LAYER,ROW,COL
 ---------------------------------------------------------------------------
  1   15.36      0   8.068      0  -2.720      0   1.946      0  -1.949    
   ( 50,  1, 83)  ( 50,  1, 74)  ( 49,  1, 73)  ( 48,  1, 99)  ( 50,  1, 99)
  0  -1.916      0  -1.206      0  0.9513      0  0.9113      0  0.7708    
   ( 49,  1, 99)  ( 46,  1, 99)  ( 49,  1, 99)  ( 48,  1, 99)  ( 44,  1, 99)
  0 -0.8855      0 -0.7860      0 -0.5718      0  0.5916      0  0.3890    
   ( 49,  1, 99)  ( 47,  1, 99)  ( 44,  1, 99)  ( 48,  1, 99)  ( 47,  1, 99)
  0 -0.2718      0 -0.2171      0 -0.1359      0  0.1200      0  0.6807E-01
   ( 49,  1, 99)  ( 48,  1, 99)  ( 47,  1, 99)  ( 49,  1, 99)  ( 48,  1, 99)
  0  0.3875E-01  1  0.2063E-01
   ( 46,  1, 99)  ( 50,  1, 99)


 FLOW MODEL IS TRANSIENT
 FLOW MODEL CONTAINS CONSTANT-HEAD CELLS


 MAXIMUM STEPSIZE DURING WHICH ANY PARTICLE CANNOT MOVE MORE THAN ONE CELL
 =  8.753    (WHEN MIN. R.F.=1)  AT K=   1, I=   1, J=  99

 MAXIMUM STEPSIZE WHICH MEETS STABILITY CRITERION OF THE ADVECTION TERM
 (FOR PURE FINITE-DIFFERENCE OPTION, MIXELM=0) 
 =  8.550    (WHEN MIN. R.F.=1)  AT K=   1, I=   1, J=  99


 TOTAL NUMBER OF POINT SOURCES/SINKS PRESENT IN THE FLOW MODEL =       100

 MAXIMUM STEPSIZE WHICH MEETS STABILITY CRITERION OF THE SINK & SOURCE TERM
 =  122.8    (WHEN MIN. R.F.=1)  AT K=   1, I=   1, J=   1

 MAXIMUM STEPSIZE WHICH MEETS STABILITY CRITERION OF THE DISPERSION TERM
 =  1.952    (WHEN MIN. R.F.=1)  AT K=   1, I=   1, J=  99
     5 CALLS TO GCG PACKAGE FOR TRANSPORT TIME STEP  46 IN FLOW TIME STEP   1 STRESS PERIOD   1
    16 TOTAL ITERATIONS
 
 SOLVING FOR HEAD 


     2 CALLS TO PCG ROUTINE FOR TIME STEP   1 IN STRESS PERIOD    1
    20 TOTAL ITERATIONS

 MAXIMUM HEAD CHANGE FOR EACH ITERATION (1 INDICATES THE FIRST INNER ITERATION):

    HEAD CHANGE    HEAD CHANGE    HEAD CHANGE    HEAD CHANGE    HEAD CHANGE 
   LAYER,ROW,COL  LAYER,ROW,COL  LAYER,ROW,COL  LAYER,ROW,COL  LAYER,ROW,COL
 ---------------------------------------------------------------------------
  1  0.2296E-02  0  0.6917E-03  0  0.2493E-03  0  0.1015E-03  0  0.5821E-04
   ( 50,  1, 79)  ( 48,  1, 85)  ( 44,  1, 88)  ( 40,  1, 91)  ( 41,  1, 80)
  0  0.4281E-04  0  0.2647E-04  0 -0.1613E-04  0 -0.1079E-04  0  0.8799E-05
   ( 50,  1, 70)  ( 50,  1, 70)  (  3,  1, 77)  (  3,  1, 68)  ( 50,  1, 25)
  0  0.8136E-05  0  0.7758E-05  0  0.6976E-05  0  0.5110E-05  0  0.3706E-05
   ( 41,  1, 27)  ( 50,  1,  1)  ( 42,  1, 14)  ( 40,  1,  1)  (  2,  1, 68)
  0  0.2543E-05  0  0.1784E-05  0  0.1334E-05  0  0.8132E-06  1 -0.2154E-06
   (  2,  1, 61)  (  5,  1, 50)  (  5,  1, 45)  (  1,  1, 47)  ( 43,  1,  1)

 MAXIMUM RESIDUAL FOR EACH ITERATION (1 INDICATES THE FIRST INNER ITERATION):

    RESIDUAL       RESIDUAL       RESIDUAL       RESIDUAL       RESIDUAL    
   LAYER,ROW,COL  LAYER,ROW,COL  LAYER,ROW,COL  LAYER,ROW,COL  LAYER,ROW,COL
 ---------------------------------------------------------------------------
  1   14.97      0   7.787      0  -2.573      0   1.729      0  -1.631    
   ( 50,  1, 83)  ( 50,  1, 73)  ( 49,  1, 72)  ( 48,  1, 99)  ( 50,  1, 99)
  0  -1.541      0 -0.9433      0  0.6503      0  0.5745      0  0.4347    
   ( 49,  1, 99)  ( 46,  1, 99)  ( 50,  1, 99)  ( 48,  1, 99)  ( 45,  1, 99)
  0 -0.4452      0 -0.3759      0 -0.2668      0  0.2721      0  0.1809    
   ( 49,  1, 99)  ( 47,  1, 99)  ( 44,  1, 99)  ( 48,  1, 99)  ( 47,  1, 99)
  0 -0.1239      0 -0.9466E-01  0 -0.5881E-01  0  0.5265E-01  1  0.2184E-01
   ( 49,  1, 99)  ( 48,  1, 99)  ( 46,  1, 99)  ( 49,  1, 99)  ( 49,  1, 99)


 FLOW MODEL IS TRANSIENT
 FLOW MODEL CONTAINS CONSTANT-HEAD CELLS


 MAXIMUM STEPSIZE DURING WHICH ANY PARTICLE CANNOT MOVE MORE THAN ONE CELL
 =  8.758    (WHEN MIN. R.F.=1)  AT K=   1, I=   1, J=  99

 MAXIMUM STEPSIZE WHICH MEETS STABILITY CRITERION OF THE ADVECTION TERM
 (FOR PURE FINITE-DIFFERENCE OPTION, MIXELM=0) 
 =  8.555    (WHEN MIN. R.F.=1)  AT K=   1, I=   1, J=  99


 TOTAL NUMBER OF POINT SOURCES/SINKS PRESENT IN THE FLOW MODEL =       100

 MAXIMUM STEPSIZE WHICH MEETS STABILITY CRITERION OF THE SINK & SOURCE TERM
 =  122.8    (WHEN MIN. R.F.=1)  AT K=   1, I=   1, J=   1

 MAXIMUM STEPSIZE WHICH MEETS STABILITY CRITERION OF THE DISPERSION TERM
 =  1.953    (WHEN MIN. R.F.=1)  AT K=   1, I=   1, J=  99
     4 CALLS TO GCG PACKAGE FOR TRANSPORT TIME STEP  47 IN FLOW TIME STEP   1 STRESS PERIOD   1
    11 TOTAL ITERATIONS
  MAXIMUM CONCENTRATION CHANGES FOR EACH ITERATION:
  MAX. CHANGE LAYER,ROW,COL MAX. CHANGE LAYER,ROW,COL MAX. CHANGE LAYER,ROW,COL MAX. CHANGE LAYER,ROW,COL MAX. CHANGE LAYER,ROW,COL
 ------------------------------------------------------------------------------------------------------------------------------------
   0.1312     (  1,  1, 99)  0.2144E-02 (  1,  1, 99)  0.7099E-04 (  1,  1, 99)  0.1431E-05 (  1,  1, 99)  0.2980E-07 (  1,  1, 97)
   0.1369E-02 (  1,  1, 97)  0.6351E-04 (  1,  1, 98)  0.7749E-06 (  2,  1, 98)  0.4032E-04 ( 17,  1, 98)  0.8196E-06 ( 12,  1, 97)
    0.000     (  1,  1,  1)



 >>>>>>>>>>>>>>>>>>>>>>>>>>>>>>>>>>>>>>>>>>>>>>>>>>>>>>>FOR COMPONENT NO. 01<<<<<<<<<<<<<<<<<<<<<<<<<<<<<<<<<<<<<<<<<<<<<<<<<<<<<<<


                                            -------------------------------------------
                                                      TRANSPORT STEP NO.   47
                                            -------------------------------------------

 TOTAL ELAPSED TIME SINCE BEGINNING OF SIMULATION =   365.0000       D
 .....................................................................

                     CUMMULATIVE MASS BUDGETS AT END OF TRANSPORT STEP   47, TIME STEP    1, STRESS PERIOD    1
                     ------------------------------------------------------------------------------------------

                                                             IN                           OUT
                                                      ----------------             ----------------
                               CONSTANT CONCENTRATION:    762167.7                   -295831.3    
                                        CONSTANT HEAD:    0.000000                    0.000000    
                                                WELLS:    0.000000                    0.000000    
                               MASS STOR (FLOW MODEL):    11.32826                   -580.1052    
                                MASS STORAGE (SOLUTE):    216.5912                   -465983.9    
                            ---------------------------------------------------------------------------
                                              [TOTAL]:    762395.6        K          -762395.2        K

                                                          NET (IN - OUT):   0.3125000    
                                                   DISCREPANCY (PERCENT):   0.4098923E-04

 HEAD WILL BE SAVED ON UNIT   99 AT END OF TIME STEP   1, STRESS PERIOD    1
1
  MASS BUDGET FOR ENTIRE MODEL AT END OF TIME STEP  1 IN STRESS PERIOD   1
  ------------------------------------------------------------------------------

     CUMULATIVE MASS      M       RATES FOR THIS TIME STEP      M/T
     ------------------                 ------------------------

           IN:                                      IN:
           ---                                      ---
             STORAGE =        3713.7744               STORAGE =          60.0617
       CONSTANT HEAD =    11627041.0000         CONSTANT HEAD =       21587.5879
               WELLS =     5203440.5000                 WELLS =       14256.0000
                DCDT =          41.0954                  DCDT =           0.0000

            TOTAL IN =    16834236.0000              TOTAL IN =       35903.6484

          OUT:                                     OUT:
          ----                                     ----
             STORAGE =     3890747.7500               STORAGE =         115.1634
       CONSTANT HEAD =    12480882.0000         CONSTANT HEAD =       35283.5703
               WELLS =           0.0000                 WELLS =           0.0000
                DCDT =      462597.8438                  DCDT =         504.6124

           TOTAL OUT =    16834228.0000             TOTAL OUT =       35903.3477

            IN - OUT =           8.0000              IN - OUT =           0.3008

 PERCENT DISCREPANCY =           0.00     PERCENT DISCREPANCY =           0.00



0


          TIME SUMMARY AT END OF TRANSPORT STEP   47 IN TIME STEP    1 IN STRESS PERIOD   1
                    SECONDS     MINUTES      HOURS       DAYS        YEARS
                    -----------------------------------------------------------
  TRANS STEP LENGTH 4.62736E+05  7712.3      128.54      5.3557     1.46632E-02
   TIME STEP LENGTH 3.15360E+07 5.25600E+05  8760.0      365.00     0.99932    
 STRESS PERIOD TIME 3.15360E+07 5.25600E+05  8760.0      365.00     0.99932    
         TOTAL TIME 3.15360E+07 5.25600E+05  8760.0      365.00     0.99932    
1


                                   ++++++++++++++++++++++++++++++++++++++++++++++++++++++++++++++
                                                       STRESS PERIOD NO.  002
                                   ++++++++++++++++++++++++++++++++++++++++++++++++++++++++++++++


 LENGTH OF CURRENT STRESS PERIOD =   365.0000    
 NUMBER OF TIME STEPS FOR CURRENT STRESS PERIOD =    1
 TIME STEP MULTIPLIER USED IN FLOW SOLUTION =   1.000000    
 USER-SPECIFIED TRANSPORT STEPSIZE =   0.000000       D
 MAXIMUM NUMBER OF TRANSPORT STEPS ALLOWED  IN ONE FLOW TIME STEP =     50000
 MULTIPLIER FOR SUCCESSIVE TRANSPORT STEPS  [USED IN IMPLICIT SCHEMES] =     1.000
 MAXIMUM TRANSPORT STEP SIZE  [USED IN IMPLICIT SCHEMES] =   0.000000       D
1
                            STRESS PERIOD NO.    2, LENGTH =   365.0000    
                            -----------------------------------------------

                              NUMBER OF TIME STEPS =     1

                               MULTIPLIER FOR DELT =     1.000

                            INITIAL TIME STEP SIZE =   365.0000    

 NO. OF POINT SINKS/SOURCES OF SPECIFIED CONCONCENTRATIONS =    0 IN STRESS PERIOD  2

 WELL NO.  LAYER   ROW   COL   STRESS RATE         NOPRINT         
 ------------------------------------------------------------------

     50 WELLS


                                          ================================================
                                                         FROM TIME =   365.00     TO    730.00    

 
 SOLVING FOR HEAD 


     2 CALLS TO PCG ROUTINE FOR TIME STEP   1 IN STRESS PERIOD    2
    21 TOTAL ITERATIONS

 MAXIMUM HEAD CHANGE FOR EACH ITERATION (1 INDICATES THE FIRST INNER ITERATION):

    HEAD CHANGE    HEAD CHANGE    HEAD CHANGE    HEAD CHANGE    HEAD CHANGE 
   LAYER,ROW,COL  LAYER,ROW,COL  LAYER,ROW,COL  LAYER,ROW,COL  LAYER,ROW,COL
 ---------------------------------------------------------------------------
  1  0.1557E-02  0  0.4792E-03  0  0.1797E-03  0  0.7876E-04  0  0.5270E-04
   ( 50,  1, 79)  ( 48,  1, 85)  ( 44,  1, 88)  ( 40,  1, 91)  ( 41,  1, 80)
  0  0.4414E-04  0  0.2635E-04  0  0.1628E-04  0  0.1356E-04  0  0.1418E-04
   ( 50,  1, 69)  ( 50,  1, 69)  ( 50,  1, 42)  ( 50,  1, 33)  ( 50,  1, 25)
  0  0.1427E-04  0  0.1454E-04  0  0.1249E-04  0  0.8878E-05  0  0.6692E-05
   ( 41,  1, 27)  ( 50,  1,  1)  ( 42,  1, 13)  (  3,  1, 73)  (  1,  1, 65)
  0  0.4394E-05  0  0.3073E-05  0  0.2201E-05  0  0.1263E-05  0  0.7037E-06
   (  2,  1, 51)  (  3,  1, 46)  (  4,  1, 41)  (  5,  1, 36)  (  4,  1, 33)
  1 -0.2460E-06
   ( 48,  1,  7)

 MAXIMUM RESIDUAL FOR EACH ITERATION (1 INDICATES THE FIRST INNER ITERATION):

    RESIDUAL       RESIDUAL       RESIDUAL       RESIDUAL       RESIDUAL    
   LAYER,ROW,COL  LAYER,ROW,COL  LAYER,ROW,COL  LAYER,ROW,COL  LAYER,ROW,COL
 ---------------------------------------------------------------------------
  1   10.12      0   5.381      0   2.345      0   1.250      0  -1.419    
   ( 50,  1, 83)  ( 50,  1, 73)  (  1,  1, 99)  ( 48,  1, 99)  ( 50,  1, 99)
  0  -1.346      0 -0.8411      0  0.7238      0  0.6696      0  0.5692    
   ( 49,  1, 99)  ( 46,  1, 99)  ( 49,  1, 99)  ( 47,  1, 99)  ( 44,  1, 99)
  0 -0.6770      0 -0.5773      0  0.4413      0  0.4307      0  0.2718    
   ( 49,  1, 99)  ( 47,  1, 99)  ( 49,  1, 99)  ( 48,  1, 99)  ( 46,  1, 99)
  0 -0.1995      0 -0.1529      0 -0.9327E-01  0  0.8125E-01  0  0.4506E-01
   ( 49,  1, 99)  ( 48,  1, 99)  ( 46,  1, 99)  ( 49,  1, 99)  ( 48,  1, 99)
  1  0.1948E-01
   ( 48,  1, 99)


 FLOW MODEL IS TRANSIENT
 FLOW MODEL CONTAINS CONSTANT-HEAD CELLS


 MAXIMUM STEPSIZE DURING WHICH ANY PARTICLE CANNOT MOVE MORE THAN ONE CELL
 =  8.742    (WHEN MIN. R.F.=1)  AT K=   1, I=   1, J=  99

 MAXIMUM STEPSIZE WHICH MEETS STABILITY CRITERION OF THE ADVECTION TERM
 (FOR PURE FINITE-DIFFERENCE OPTION, MIXELM=0) 
 =  8.534    (WHEN MIN. R.F.=1)  AT K=   1, I=   1, J=  99


 TOTAL NUMBER OF POINT SOURCES/SINKS PRESENT IN THE FLOW MODEL =       100

 MAXIMUM STEPSIZE WHICH MEETS STABILITY CRITERION OF THE SINK & SOURCE TERM
 =  122.8    (WHEN MIN. R.F.=1)  AT K=   1, I=   1, J=   1

 MAXIMUM STEPSIZE WHICH MEETS STABILITY CRITERION OF THE DISPERSION TERM
 =  1.948    (WHEN MIN. R.F.=1)  AT K=   1, I=   1, J=  99


     5 CALLS TO GCG PACKAGE FOR TRANSPORT TIME STEP   1 IN FLOW TIME STEP   1 STRESS PERIOD   2
    16 TOTAL ITERATIONS

 OUTPUT CONTROL FOR STRESS PERIOD    2   TIME STEP   1
    SAVE HEAD FOR ALL LAYERS
    SAVE BUDGET FOR ALL LAYERS
    SAVE BUDGET
 
 SOLVING FOR HEAD 


     2 CALLS TO PCG ROUTINE FOR TIME STEP   1 IN STRESS PERIOD    2
    22 TOTAL ITERATIONS

 MAXIMUM HEAD CHANGE FOR EACH ITERATION (1 INDICATES THE FIRST INNER ITERATION):

    HEAD CHANGE    HEAD CHANGE    HEAD CHANGE    HEAD CHANGE    HEAD CHANGE 
   LAYER,ROW,COL  LAYER,ROW,COL  LAYER,ROW,COL  LAYER,ROW,COL  LAYER,ROW,COL
 ---------------------------------------------------------------------------
  1  0.2251E-02  0  0.6991E-03  0  0.2642E-03  0  0.1089E-03  0  0.6375E-04
   ( 50,  1, 79)  ( 48,  1, 85)  ( 44,  1, 88)  ( 40,  1, 91)  ( 41,  1, 80)
  0  0.4854E-04  0  0.3087E-04  0 -0.2024E-04  0 -0.1387E-04  0 -0.1041E-04
   ( 50,  1, 69)  ( 50,  1, 70)  (  3,  1, 77)  (  3,  1, 67)  (  2,  1, 72)
  0  0.9916E-05  0  0.1047E-04  0  0.1146E-04  0  0.1034E-04  0  0.8785E-05
   ( 42,  1, 29)  ( 50,  1,  1)  ( 38,  1,  3)  ( 41,  1,  1)  ( 50,  1,  1)
  0  0.5193E-05  0  0.4063E-05  0  0.3173E-05  0  0.2042E-05  0  0.1162E-05
   (  4,  1, 53)  (  5,  1, 48)  (  6,  1, 43)  (  1,  1, 44)  (  1,  1, 39)
  0 -0.8459E-06  1 -0.2894E-06
   ( 48,  1,  7)  ( 38,  1,  7)

 MAXIMUM RESIDUAL FOR EACH ITERATION (1 INDICATES THE FIRST INNER ITERATION):

    RESIDUAL       RESIDUAL       RESIDUAL       RESIDUAL       RESIDUAL    
   LAYER,ROW,COL  LAYER,ROW,COL  LAYER,ROW,COL  LAYER,ROW,COL  LAYER,ROW,COL
 ---------------------------------------------------------------------------
  1   14.64      0   7.878      0  -2.684      0   1.756      0  -1.720    
   ( 50,  1, 82)  ( 50,  1, 73)  ( 49,  1, 72)  ( 48,  1, 99)  ( 50,  1, 99)
  0  -1.667      0  -1.041      0  0.7149      0  0.6421      0  0.4959    
   ( 49,  1, 99)  ( 46,  1, 99)  ( 50,  1, 99)  ( 48,  1, 99)  ( 45,  1, 99)
  0 -0.5070      0 -0.4680      0 -0.3736      0  0.4225      0  0.3118    
   ( 49,  1, 99)  ( 47,  1, 99)  ( 44,  1, 99)  ( 48,  1, 99)  ( 46,  1, 99)
  0 -0.2346      0 -0.1931      0 -0.1267      0  0.1155      0  0.6714E-01
   ( 49,  1, 99)  ( 48,  1, 99)  ( 46,  1, 99)  ( 49,  1, 99)  ( 48,  1, 99)
  0  0.3898E-01  1  0.1854E-01
   ( 46,  1, 99)  ( 50,  1, 99)


 FLOW MODEL IS TRANSIENT
 FLOW MODEL CONTAINS CONSTANT-HEAD CELLS


 MAXIMUM STEPSIZE DURING WHICH ANY PARTICLE CANNOT MOVE MORE THAN ONE CELL
 =  8.759    (WHEN MIN. R.F.=1)  AT K=   1, I=   1, J=  99

 MAXIMUM STEPSIZE WHICH MEETS STABILITY CRITERION OF THE ADVECTION TERM
 (FOR PURE FINITE-DIFFERENCE OPTION, MIXELM=0) 
 =  8.554    (WHEN MIN. R.F.=1)  AT K=   1, I=   1, J=  99


 TOTAL NUMBER OF POINT SOURCES/SINKS PRESENT IN THE FLOW MODEL =       100

 MAXIMUM STEPSIZE WHICH MEETS STABILITY CRITERION OF THE SINK & SOURCE TERM
 =  122.8    (WHEN MIN. R.F.=1)  AT K=   1, I=   1, J=   1

 MAXIMUM STEPSIZE WHICH MEETS STABILITY CRITERION OF THE DISPERSION TERM
 =  1.953    (WHEN MIN. R.F.=1)  AT K=   1, I=   1, J=  99
     5 CALLS TO GCG PACKAGE FOR TRANSPORT TIME STEP   2 IN FLOW TIME STEP   1 STRESS PERIOD   2
    16 TOTAL ITERATIONS
 
 SOLVING FOR HEAD 


     2 CALLS TO PCG ROUTINE FOR TIME STEP   1 IN STRESS PERIOD    2
    22 TOTAL ITERATIONS

 MAXIMUM HEAD CHANGE FOR EACH ITERATION (1 INDICATES THE FIRST INNER ITERATION):

    HEAD CHANGE    HEAD CHANGE    HEAD CHANGE    HEAD CHANGE    HEAD CHANGE 
   LAYER,ROW,COL  LAYER,ROW,COL  LAYER,ROW,COL  LAYER,ROW,COL  LAYER,ROW,COL
 ---------------------------------------------------------------------------
  1  0.2254E-02  0  0.7001E-03  0  0.2644E-03  0  0.1104E-03  0  0.6469E-04
   ( 50,  1, 78)  ( 48,  1, 85)  ( 44,  1, 88)  ( 40,  1, 91)  ( 41,  1, 79)
  0  0.4932E-04  0  0.3057E-04  0 -0.2018E-04  0 -0.1306E-04  0 -0.9406E-05
   ( 50,  1, 69)  ( 50,  1, 70)  (  2,  1, 76)  (  3,  1, 67)  (  2,  1, 72)
  0  0.8293E-05  0  0.8649E-05  0  0.9578E-05  0  0.9204E-05  0  0.8487E-05
   ( 41,  1, 27)  ( 50,  1,  1)  ( 43,  1, 15)  ( 40,  1,  1)  ( 50,  1,  1)
  0  0.4979E-05  0  0.3865E-05  0  0.3221E-05  0  0.2122E-05  0  0.1236E-05
   ( 36,  1,  2)  (  4,  1, 50)  (  4,  1, 44)  (  5,  1, 39)  (  5,  1, 33)
  0  0.8045E-06  1 -0.2802E-06
   (  2,  1, 36)  ( 38,  1,  7)

 MAXIMUM RESIDUAL FOR EACH ITERATION (1 INDICATES THE FIRST INNER ITERATION):

    RESIDUAL       RESIDUAL       RESIDUAL       RESIDUAL       RESIDUAL    
   LAYER,ROW,COL  LAYER,ROW,COL  LAYER,ROW,COL  LAYER,ROW,COL  LAYER,ROW,COL
 ---------------------------------------------------------------------------
  1   14.72      0   7.890      0  -2.657      0   1.722      0  -1.710    
   ( 50,  1, 82)  ( 50,  1, 73)  ( 49,  1, 71)  ( 48,  1, 99)  ( 50,  1, 99)
  0  -1.652      0  -1.025      0  0.6869      0  0.6017      0  0.4487    
   ( 49,  1, 99)  ( 46,  1, 99)  ( 50,  1, 99)  ( 48,  1, 99)  ( 45,  1, 99)
  0 -0.4385      0 -0.3991      0 -0.3251      0  0.3725      0  0.2927    
   ( 49,  1, 99)  ( 47,  1, 99)  ( 44,  1, 99)  ( 48,  1, 99)  ( 47,  1, 99)
  0 -0.2219      0 -0.1882      0 -0.1256      0  0.1130      0  0.6585E-01
   ( 49,  1, 99)  ( 48,  1, 99)  ( 46,  1, 99)  ( 49,  1, 99)  ( 48,  1, 99)
  0  0.3783E-01  1  0.1787E-01
   ( 46,  1, 99)  ( 46,  1, 99)


 FLOW MODEL IS TRANSIENT
 FLOW MODEL CONTAINS CONSTANT-HEAD CELLS


 MAXIMUM STEPSIZE DURING WHICH ANY PARTICLE CANNOT MOVE MORE THAN ONE CELL
 =  8.767    (WHEN MIN. R.F.=1)  AT K=   1, I=   1, J=  99

 MAXIMUM STEPSIZE WHICH MEETS STABILITY CRITERION OF THE ADVECTION TERM
 (FOR PURE FINITE-DIFFERENCE OPTION, MIXELM=0) 
 =  8.562    (WHEN MIN. R.F.=1)  AT K=   1, I=   1, J=  99


 TOTAL NUMBER OF POINT SOURCES/SINKS PRESENT IN THE FLOW MODEL =       100

 MAXIMUM STEPSIZE WHICH MEETS STABILITY CRITERION OF THE SINK & SOURCE TERM
 =  122.8    (WHEN MIN. R.F.=1)  AT K=   1, I=   1, J=   1

 MAXIMUM STEPSIZE WHICH MEETS STABILITY CRITERION OF THE DISPERSION TERM
 =  1.955    (WHEN MIN. R.F.=1)  AT K=   1, I=   1, J=  99
     5 CALLS TO GCG PACKAGE FOR TRANSPORT TIME STEP   3 IN FLOW TIME STEP   1 STRESS PERIOD   2
    16 TOTAL ITERATIONS
 
 SOLVING FOR HEAD 


     2 CALLS TO PCG ROUTINE FOR TIME STEP   1 IN STRESS PERIOD    2
    22 TOTAL ITERATIONS

 MAXIMUM HEAD CHANGE FOR EACH ITERATION (1 INDICATES THE FIRST INNER ITERATION):

    HEAD CHANGE    HEAD CHANGE    HEAD CHANGE    HEAD CHANGE    HEAD CHANGE 
   LAYER,ROW,COL  LAYER,ROW,COL  LAYER,ROW,COL  LAYER,ROW,COL  LAYER,ROW,COL
 ---------------------------------------------------------------------------
  1  0.2239E-02  0  0.6962E-03  0  0.2646E-03  0  0.1109E-03  0  0.6476E-04
   ( 50,  1, 78)  ( 48,  1, 84)  ( 45,  1, 88)  ( 41,  1, 91)  ( 41,  1, 79)
  0  0.4854E-04  0  0.2990E-04  0 -0.2042E-04  0 -0.1274E-04  0 -0.8910E-05
   ( 50,  1, 69)  ( 50,  1, 69)  (  2,  1, 76)  (  3,  1, 67)  (  2,  1, 72)
  0  0.6672E-05  0  0.6616E-05  0  0.7342E-05  0  0.7431E-05  0  0.7607E-05
   ( 42,  1, 28)  ( 50,  1,  1)  ( 43,  1, 14)  ( 41,  1,  1)  ( 50,  1,  1)
  0  0.4931E-05  0  0.3398E-05  0  0.3041E-05  0  0.2115E-05  0  0.1272E-05
   ( 36,  1,  2)  (  5,  1, 50)  (  4,  1, 44)  (  4,  1, 38)  (  5,  1, 32)
  0  0.8290E-06  1 -0.2794E-06
   (  2,  1, 35)  ( 38,  1,  7)

 MAXIMUM RESIDUAL FOR EACH ITERATION (1 INDICATES THE FIRST INNER ITERATION):

    RESIDUAL       RESIDUAL       RESIDUAL       RESIDUAL       RESIDUAL    
   LAYER,ROW,COL  LAYER,ROW,COL  LAYER,ROW,COL  LAYER,ROW,COL  LAYER,ROW,COL
 ---------------------------------------------------------------------------
  1   14.62      0   7.908      0  -2.677      0   1.672      0  -1.672    
   ( 50,  1, 82)  ( 50,  1, 72)  ( 49,  1, 71)  ( 48,  1, 99)  ( 50,  1, 99)
  0  -1.609      0  -1.000      0  0.6522      0  0.5574      0  0.3993    
   ( 49,  1, 99)  ( 46,  1, 99)  ( 50,  1, 99)  ( 48,  1, 99)  ( 45,  1, 99)
  0 -0.3632      0 -0.3191      0 -0.2574      0  0.2992      0  0.2487    
   ( 49,  1, 99)  ( 47,  1, 99)  ( 44,  1, 99)  ( 48,  1, 99)  ( 47,  1, 99)
  0 -0.1979      0 -0.1735      0 -0.1195      0  0.1092      0  0.6432E-01
   ( 49,  1, 99)  ( 48,  1, 99)  ( 46,  1, 99)  ( 49,  1, 99)  ( 48,  1, 99)
  0  0.3702E-01  1  0.1731E-01
   ( 46,  1, 99)  ( 46,  1, 99)


 FLOW MODEL IS TRANSIENT
 FLOW MODEL CONTAINS CONSTANT-HEAD CELLS


 MAXIMUM STEPSIZE DURING WHICH ANY PARTICLE CANNOT MOVE MORE THAN ONE CELL
 =  8.774    (WHEN MIN. R.F.=1)  AT K=   1, I=   1, J=  99

 MAXIMUM STEPSIZE WHICH MEETS STABILITY CRITERION OF THE ADVECTION TERM
 (FOR PURE FINITE-DIFFERENCE OPTION, MIXELM=0) 
 =  8.569    (WHEN MIN. R.F.=1)  AT K=   1, I=   1, J=  99


 TOTAL NUMBER OF POINT SOURCES/SINKS PRESENT IN THE FLOW MODEL =       100

 MAXIMUM STEPSIZE WHICH MEETS STABILITY CRITERION OF THE SINK & SOURCE TERM
 =  122.8    (WHEN MIN. R.F.=1)  AT K=   1, I=   1, J=   1

 MAXIMUM STEPSIZE WHICH MEETS STABILITY CRITERION OF THE DISPERSION TERM
 =  1.956    (WHEN MIN. R.F.=1)  AT K=   1, I=   1, J=  99
     5 CALLS TO GCG PACKAGE FOR TRANSPORT TIME STEP   4 IN FLOW TIME STEP   1 STRESS PERIOD   2
    16 TOTAL ITERATIONS
 
 SOLVING FOR HEAD 


     2 CALLS TO PCG ROUTINE FOR TIME STEP   1 IN STRESS PERIOD    2
    22 TOTAL ITERATIONS

 MAXIMUM HEAD CHANGE FOR EACH ITERATION (1 INDICATES THE FIRST INNER ITERATION):

    HEAD CHANGE    HEAD CHANGE    HEAD CHANGE    HEAD CHANGE    HEAD CHANGE 
   LAYER,ROW,COL  LAYER,ROW,COL  LAYER,ROW,COL  LAYER,ROW,COL  LAYER,ROW,COL
 ---------------------------------------------------------------------------
  1  0.2216E-02  0  0.6930E-03  0  0.2641E-03  0  0.1112E-03  0  0.6443E-04
   ( 50,  1, 78)  ( 48,  1, 84)  ( 45,  1, 88)  ( 40,  1, 90)  ( 41,  1, 79)
  0  0.4791E-04  0  0.2940E-04  0 -0.2037E-04  0 -0.1253E-04  0 -0.8600E-05
   ( 50,  1, 68)  ( 50,  1, 69)  (  2,  1, 76)  (  3,  1, 67)  (  2,  1, 72)
  0  0.5755E-05  0  0.5439E-05  0  0.5963E-05  0  0.6153E-05  0  0.6707E-05
   ( 42,  1, 28)  ( 50,  1,  1)  ( 43,  1, 14)  ( 41,  1,  1)  ( 50,  1,  1)
  0  0.4678E-05  0  0.2976E-05  0  0.2849E-05  0  0.2089E-05  0  0.1300E-05
   ( 36,  1,  2)  (  4,  1, 50)  (  4,  1, 44)  (  4,  1, 38)  (  5,  1, 32)
  0  0.8524E-06  1 -0.2701E-06
   (  2,  1, 35)  ( 38,  1,  7)

 MAXIMUM RESIDUAL FOR EACH ITERATION (1 INDICATES THE FIRST INNER ITERATION):

    RESIDUAL       RESIDUAL       RESIDUAL       RESIDUAL       RESIDUAL    
   LAYER,ROW,COL  LAYER,ROW,COL  LAYER,ROW,COL  LAYER,ROW,COL  LAYER,ROW,COL
 ---------------------------------------------------------------------------
  1   14.48      0   7.903      0  -2.672      0   1.622      0  -1.631    
   ( 50,  1, 81)  ( 50,  1, 72)  ( 49,  1, 71)  ( 48,  1, 99)  ( 50,  1, 99)
  0  -1.566      0 -0.9791      0  0.6267      0  0.5311      0  0.3720    
   ( 49,  1, 99)  ( 46,  1, 99)  ( 50,  1, 99)  ( 48,  1, 99)  ( 45,  1, 99)
  0 -0.3205      0 -0.2729      0 -0.2159      0  0.2466      0  0.2145    
   ( 49,  1, 99)  ( 47,  1, 99)  ( 44,  1, 99)  ( 48,  1, 99)  ( 47,  1, 99)
  0 -0.1757      0 -0.1591      0 -0.1132      0  0.1051      0  0.6273E-01
   ( 49,  1, 99)  ( 48,  1, 99)  ( 46,  1, 99)  ( 49,  1, 99)  ( 48,  1, 99)
  0  0.3629E-01  1  0.1694E-01
   ( 46,  1, 99)  ( 46,  1, 99)


 FLOW MODEL IS TRANSIENT
 FLOW MODEL CONTAINS CONSTANT-HEAD CELLS


 MAXIMUM STEPSIZE DURING WHICH ANY PARTICLE CANNOT MOVE MORE THAN ONE CELL
 =  8.780    (WHEN MIN. R.F.=1)  AT K=   1, I=   1, J=  99

 MAXIMUM STEPSIZE WHICH MEETS STABILITY CRITERION OF THE ADVECTION TERM
 (FOR PURE FINITE-DIFFERENCE OPTION, MIXELM=0) 
 =  8.575    (WHEN MIN. R.F.=1)  AT K=   1, I=   1, J=  99


 TOTAL NUMBER OF POINT SOURCES/SINKS PRESENT IN THE FLOW MODEL =       100

 MAXIMUM STEPSIZE WHICH MEETS STABILITY CRITERION OF THE SINK & SOURCE TERM
 =  122.8    (WHEN MIN. R.F.=1)  AT K=   1, I=   1, J=   1

 MAXIMUM STEPSIZE WHICH MEETS STABILITY CRITERION OF THE DISPERSION TERM
 =  1.958    (WHEN MIN. R.F.=1)  AT K=   1, I=   1, J=  99
     5 CALLS TO GCG PACKAGE FOR TRANSPORT TIME STEP   5 IN FLOW TIME STEP   1 STRESS PERIOD   2
    16 TOTAL ITERATIONS
 
 SOLVING FOR HEAD 


     2 CALLS TO PCG ROUTINE FOR TIME STEP   1 IN STRESS PERIOD    2
    22 TOTAL ITERATIONS

 MAXIMUM HEAD CHANGE FOR EACH ITERATION (1 INDICATES THE FIRST INNER ITERATION):

    HEAD CHANGE    HEAD CHANGE    HEAD CHANGE    HEAD CHANGE    HEAD CHANGE 
   LAYER,ROW,COL  LAYER,ROW,COL  LAYER,ROW,COL  LAYER,ROW,COL  LAYER,ROW,COL
 ---------------------------------------------------------------------------
  1  0.2190E-02  0  0.6887E-03  0  0.2635E-03  0  0.1114E-03  0  0.6388E-04
   ( 50,  1, 78)  ( 48,  1, 84)  ( 44,  1, 87)  ( 40,  1, 90)  ( 41,  1, 79)
  0  0.4722E-04  0 -0.2934E-04  0 -0.2045E-04  0 -0.1231E-04  0 -0.8267E-05
   ( 50,  1, 68)  (  7,  1, 74)  (  2,  1, 75)  (  3,  1, 67)  (  2,  1, 72)
  0 -0.5096E-05  0  0.4302E-05  0  0.4501E-05  0  0.4590E-05  0  0.5289E-05
   (  2,  1, 60)  ( 43,  1, 22)  ( 44,  1, 15)  ( 41,  1,  1)  ( 50,  1,  1)
  0  0.4022E-05  0  0.2873E-05  0  0.2431E-05  0  0.1975E-05  0  0.1314E-05
   ( 37,  1,  2)  ( 42,  1, 10)  (  4,  1, 44)  (  4,  1, 37)  (  5,  1, 32)
  0  0.8833E-06  1 -0.2575E-06
   (  2,  1, 35)  ( 39,  1,  7)

 MAXIMUM RESIDUAL FOR EACH ITERATION (1 INDICATES THE FIRST INNER ITERATION):

    RESIDUAL       RESIDUAL       RESIDUAL       RESIDUAL       RESIDUAL    
   LAYER,ROW,COL  LAYER,ROW,COL  LAYER,ROW,COL  LAYER,ROW,COL  LAYER,ROW,COL
 ---------------------------------------------------------------------------
  1   14.38      0   7.857      0  -2.650      0   1.571      0  -1.589    
   ( 50,  1, 81)  ( 50,  1, 72)  ( 49,  1, 71)  ( 48,  1, 99)  ( 50,  1, 99)
  0  -1.524      0 -0.9590      0  0.6026      0  0.5059      0  0.3457    
   ( 49,  1, 99)  ( 46,  1, 99)  ( 50,  1, 99)  ( 48,  1, 99)  ( 45,  1, 99)
  0 -0.2789      0 -0.2266      0 -0.1708      0  0.1844      0  0.1686    
   ( 49,  1, 99)  ( 47,  1, 99)  ( 44,  1, 99)  ( 48,  1, 99)  ( 47,  1, 99)
  0 -0.1413      0 -0.1350      0 -0.1014      0  0.9759E-01  0  0.5992E-01
   ( 49,  1, 99)  ( 48,  1, 99)  ( 46,  1, 99)  ( 49,  1, 99)  ( 48,  1, 99)
  0  0.3515E-01  1  0.1633E-01
   ( 46,  1, 99)  ( 46,  1, 99)


 FLOW MODEL IS TRANSIENT
 FLOW MODEL CONTAINS CONSTANT-HEAD CELLS


 MAXIMUM STEPSIZE DURING WHICH ANY PARTICLE CANNOT MOVE MORE THAN ONE CELL
 =  8.786    (WHEN MIN. R.F.=1)  AT K=   1, I=   1, J=  99

 MAXIMUM STEPSIZE WHICH MEETS STABILITY CRITERION OF THE ADVECTION TERM
 (FOR PURE FINITE-DIFFERENCE OPTION, MIXELM=0) 
 =  8.582    (WHEN MIN. R.F.=1)  AT K=   1, I=   1, J=  99


 TOTAL NUMBER OF POINT SOURCES/SINKS PRESENT IN THE FLOW MODEL =       100

 MAXIMUM STEPSIZE WHICH MEETS STABILITY CRITERION OF THE SINK & SOURCE TERM
 =  122.8    (WHEN MIN. R.F.=1)  AT K=   1, I=   1, J=   1

 MAXIMUM STEPSIZE WHICH MEETS STABILITY CRITERION OF THE DISPERSION TERM
 =  1.959    (WHEN MIN. R.F.=1)  AT K=   1, I=   1, J=  99
     5 CALLS TO GCG PACKAGE FOR TRANSPORT TIME STEP   6 IN FLOW TIME STEP   1 STRESS PERIOD   2
    16 TOTAL ITERATIONS
 
 SOLVING FOR HEAD 


     2 CALLS TO PCG ROUTINE FOR TIME STEP   1 IN STRESS PERIOD    2
    22 TOTAL ITERATIONS

 MAXIMUM HEAD CHANGE FOR EACH ITERATION (1 INDICATES THE FIRST INNER ITERATION):

    HEAD CHANGE    HEAD CHANGE    HEAD CHANGE    HEAD CHANGE    HEAD CHANGE 
   LAYER,ROW,COL  LAYER,ROW,COL  LAYER,ROW,COL  LAYER,ROW,COL  LAYER,ROW,COL
 ---------------------------------------------------------------------------
  1  0.2169E-02  0  0.6836E-03  0  0.2630E-03  0  0.1115E-03  0  0.6361E-04
   ( 50,  1, 77)  ( 48,  1, 84)  ( 45,  1, 87)  ( 40,  1, 90)  ( 41,  1, 78)
  0  0.4667E-04  0 -0.2939E-04  0 -0.2057E-04  0 -0.1213E-04  0 -0.8028E-05
   ( 50,  1, 68)  (  7,  1, 74)  (  2,  1, 75)  (  3,  1, 67)  (  2,  1, 72)
  0 -0.5061E-05  0  0.3711E-05  0  0.3728E-05  0  0.3690E-05  0  0.4304E-05
   (  2,  1, 60)  ( 43,  1, 21)  ( 44,  1, 15)  ( 41,  1,  1)  ( 50,  1,  1)
  0  0.3408E-05  0  0.2648E-05  0  0.2025E-05  0  0.1808E-05  0  0.1288E-05
   ( 37,  1,  2)  ( 42,  1,  9)  (  5,  1, 44)  (  4,  1, 37)  (  5,  1, 32)
  0  0.8948E-06  1 -0.2467E-06
   (  2,  1, 35)  ( 39,  1,  7)

 MAXIMUM RESIDUAL FOR EACH ITERATION (1 INDICATES THE FIRST INNER ITERATION):

    RESIDUAL       RESIDUAL       RESIDUAL       RESIDUAL       RESIDUAL    
   LAYER,ROW,COL  LAYER,ROW,COL  LAYER,ROW,COL  LAYER,ROW,COL  LAYER,ROW,COL
 ---------------------------------------------------------------------------
  1   14.25      0   7.804      0  -2.636      0   1.522      0  -1.549    
   ( 50,  1, 81)  ( 50,  1, 71)  ( 49,  1, 70)  ( 48,  1, 99)  ( 50,  1, 99)
  0  -1.487      0 -0.9416      0  0.5845      0  0.4900      0  0.3311    
   ( 49,  1, 99)  ( 46,  1, 99)  ( 50,  1, 99)  ( 48,  1, 99)  ( 45,  1, 99)
  0 -0.2568      0 -0.2023      0 -0.1464      0  0.1504      0  0.1384    
   ( 49,  1, 99)  ( 47,  1, 99)  ( 44,  1, 99)  ( 49,  1, 99)  ( 47,  1, 99)
  0 -0.1156      0 -0.1147      0 -0.9012E-01  0  0.8981E-01  0  0.5680E-01
   ( 49,  1, 99)  ( 48,  1, 99)  ( 46,  1, 99)  ( 49,  1, 99)  ( 48,  1, 99)
  0  0.3386E-01  1  0.1566E-01
   ( 46,  1, 99)  ( 46,  1, 99)


 FLOW MODEL IS TRANSIENT
 FLOW MODEL CONTAINS CONSTANT-HEAD CELLS


 MAXIMUM STEPSIZE DURING WHICH ANY PARTICLE CANNOT MOVE MORE THAN ONE CELL
 =  8.792    (WHEN MIN. R.F.=1)  AT K=   1, I=   1, J=  99

 MAXIMUM STEPSIZE WHICH MEETS STABILITY CRITERION OF THE ADVECTION TERM
 (FOR PURE FINITE-DIFFERENCE OPTION, MIXELM=0) 
 =  8.587    (WHEN MIN. R.F.=1)  AT K=   1, I=   1, J=  99


 TOTAL NUMBER OF POINT SOURCES/SINKS PRESENT IN THE FLOW MODEL =       100

 MAXIMUM STEPSIZE WHICH MEETS STABILITY CRITERION OF THE SINK & SOURCE TERM
 =  122.8    (WHEN MIN. R.F.=1)  AT K=   1, I=   1, J=   1

 MAXIMUM STEPSIZE WHICH MEETS STABILITY CRITERION OF THE DISPERSION TERM
 =  1.961    (WHEN MIN. R.F.=1)  AT K=   1, I=   1, J=  99
     5 CALLS TO GCG PACKAGE FOR TRANSPORT TIME STEP   7 IN FLOW TIME STEP   1 STRESS PERIOD   2
    16 TOTAL ITERATIONS
 
 SOLVING FOR HEAD 


     2 CALLS TO PCG ROUTINE FOR TIME STEP   1 IN STRESS PERIOD    2
    22 TOTAL ITERATIONS

 MAXIMUM HEAD CHANGE FOR EACH ITERATION (1 INDICATES THE FIRST INNER ITERATION):

    HEAD CHANGE    HEAD CHANGE    HEAD CHANGE    HEAD CHANGE    HEAD CHANGE 
   LAYER,ROW,COL  LAYER,ROW,COL  LAYER,ROW,COL  LAYER,ROW,COL  LAYER,ROW,COL
 ---------------------------------------------------------------------------
  1  0.2149E-02  0  0.6781E-03  0  0.2628E-03  0  0.1118E-03  0  0.6346E-04
   ( 50,  1, 77)  ( 48,  1, 84)  ( 45,  1, 87)  ( 41,  1, 90)  ( 41,  1, 78)
  0  0.4613E-04  0 -0.2937E-04  0 -0.2065E-04  0 -0.1196E-04  0 -0.7864E-05
   ( 50,  1, 68)  (  7,  1, 74)  (  2,  1, 75)  (  3,  1, 67)  (  2,  1, 71)
  0 -0.5078E-05  0  0.3305E-05  0  0.3190E-05  0  0.3038E-05  0  0.3513E-05
   (  2,  1, 59)  ( 43,  1, 21)  ( 44,  1, 15)  ( 41,  1,  1)  ( 50,  1,  1)
  0  0.2824E-05  0  0.2326E-05  0  0.1897E-05  0  0.1579E-05  0  0.1221E-05
   ( 37,  1,  2)  ( 42,  1,  9)  ( 42,  1,  1)  (  5,  1, 38)  (  4,  1, 31)
  0  0.8901E-06  1 -0.2318E-06
   (  2,  1, 34)  ( 39,  1,  7)

 MAXIMUM RESIDUAL FOR EACH ITERATION (1 INDICATES THE FIRST INNER ITERATION):

    RESIDUAL       RESIDUAL       RESIDUAL       RESIDUAL       RESIDUAL    
   LAYER,ROW,COL  LAYER,ROW,COL  LAYER,ROW,COL  LAYER,ROW,COL  LAYER,ROW,COL
 ---------------------------------------------------------------------------
  1   14.10      0   7.817      0  -2.644      0   1.475      0  -1.511    
   ( 50,  1, 81)  ( 50,  1, 71)  ( 49,  1, 70)  ( 48,  1, 99)  ( 50,  1, 99)
  0  -1.449      0 -0.9257      0  0.5684      0  0.4774      0  0.3207    
   ( 49,  1, 99)  ( 46,  1, 99)  ( 50,  1, 99)  ( 48,  1, 99)  ( 45,  1, 99)
  0 -0.2413      0 -0.1856      0 -0.1295      0  0.1273      0  0.1148    
   ( 49,  1, 99)  ( 47,  1, 99)  ( 44,  1, 99)  ( 49,  1, 99)  ( 47,  1, 99)
  0 -0.9343E-01  0 -0.9536E-01  0 -0.7811E-01  0  0.8071E-01  0  0.5289E-01
   ( 49,  1, 99)  ( 48,  1, 99)  ( 46,  1, 99)  ( 49,  1, 99)  ( 48,  1, 99)
  0  0.3222E-01  1  0.1484E-01
   ( 46,  1, 99)  ( 46,  1, 99)


 FLOW MODEL IS TRANSIENT
 FLOW MODEL CONTAINS CONSTANT-HEAD CELLS


 MAXIMUM STEPSIZE DURING WHICH ANY PARTICLE CANNOT MOVE MORE THAN ONE CELL
 =  8.798    (WHEN MIN. R.F.=1)  AT K=   1, I=   1, J=  99

 MAXIMUM STEPSIZE WHICH MEETS STABILITY CRITERION OF THE ADVECTION TERM
 (FOR PURE FINITE-DIFFERENCE OPTION, MIXELM=0) 
 =  8.593    (WHEN MIN. R.F.=1)  AT K=   1, I=   1, J=  99


 TOTAL NUMBER OF POINT SOURCES/SINKS PRESENT IN THE FLOW MODEL =       100

 MAXIMUM STEPSIZE WHICH MEETS STABILITY CRITERION OF THE SINK & SOURCE TERM
 =  122.8    (WHEN MIN. R.F.=1)  AT K=   1, I=   1, J=   1

 MAXIMUM STEPSIZE WHICH MEETS STABILITY CRITERION OF THE DISPERSION TERM
 =  1.962    (WHEN MIN. R.F.=1)  AT K=   1, I=   1, J=  99
     5 CALLS TO GCG PACKAGE FOR TRANSPORT TIME STEP   8 IN FLOW TIME STEP   1 STRESS PERIOD   2
    16 TOTAL ITERATIONS
 
 SOLVING FOR HEAD 


     2 CALLS TO PCG ROUTINE FOR TIME STEP   1 IN STRESS PERIOD    2
    22 TOTAL ITERATIONS

 MAXIMUM HEAD CHANGE FOR EACH ITERATION (1 INDICATES THE FIRST INNER ITERATION):

    HEAD CHANGE    HEAD CHANGE    HEAD CHANGE    HEAD CHANGE    HEAD CHANGE 
   LAYER,ROW,COL  LAYER,ROW,COL  LAYER,ROW,COL  LAYER,ROW,COL  LAYER,ROW,COL
 ---------------------------------------------------------------------------
  1  0.2128E-02  0  0.6741E-03  0  0.2624E-03  0  0.1121E-03  0  0.6320E-04
   ( 50,  1, 77)  ( 48,  1, 83)  ( 45,  1, 87)  ( 41,  1, 90)  ( 41,  1, 78)
  0  0.4575E-04  0 -0.2943E-04  0 -0.2076E-04  0 -0.1176E-04  0 -0.7671E-05
   ( 50,  1, 67)  (  6,  1, 73)  (  2,  1, 75)  (  3,  1, 67)  (  1,  1, 69)
  0 -0.5131E-05  0 -0.3184E-05  0  0.2824E-05  0  0.2600E-05  0  0.2934E-05
   (  2,  1, 59)  (  4,  1, 54)  ( 44,  1, 15)  ( 42,  1,  1)  ( 50,  1,  1)
  0  0.2343E-05  0  0.1991E-05  0  0.1734E-05  0  0.1326E-05  0  0.1118E-05
   ( 37,  1,  2)  ( 43,  1, 10)  ( 43,  1,  1)  (  5,  1, 38)  (  5,  1, 31)
  0  0.8634E-06  1 -0.2139E-06
   (  2,  1, 34)  ( 39,  1,  7)

 MAXIMUM RESIDUAL FOR EACH ITERATION (1 INDICATES THE FIRST INNER ITERATION):

    RESIDUAL       RESIDUAL       RESIDUAL       RESIDUAL       RESIDUAL    
   LAYER,ROW,COL  LAYER,ROW,COL  LAYER,ROW,COL  LAYER,ROW,COL  LAYER,ROW,COL
 ---------------------------------------------------------------------------
  1   14.01      0   7.790      0  -2.633      0   1.439      0  -1.474    
   ( 50,  1, 80)  ( 50,  1, 71)  ( 49,  1, 70)  ( 49,  1, 78)  ( 50,  1, 99)
  0  -1.415      0 -0.9101      0  0.5544      0  0.4672      0  0.3130    
   ( 49,  1, 99)  ( 46,  1, 99)  ( 50,  1, 99)  ( 48,  1, 99)  ( 45,  1, 99)
  0 -0.2304      0 -0.1744      0 -0.1193      0  0.1114      0  0.9756E-01
   ( 49,  1, 99)  ( 47,  1, 99)  ( 45,  1, 99)  ( 49,  1, 99)  ( 47,  1, 99)
  0 -0.7609E-01  0 -0.7878E-01  0 -0.6650E-01  0  0.7105E-01  0  0.4838E-01
   ( 49,  1, 99)  ( 48,  1, 99)  ( 46,  1, 99)  ( 49,  1, 99)  ( 48,  1, 99)
  0  0.3025E-01  1  0.1387E-01
   ( 46,  1, 99)  ( 46,  1, 99)


 FLOW MODEL IS TRANSIENT
 FLOW MODEL CONTAINS CONSTANT-HEAD CELLS


 MAXIMUM STEPSIZE DURING WHICH ANY PARTICLE CANNOT MOVE MORE THAN ONE CELL
 =  8.804    (WHEN MIN. R.F.=1)  AT K=   1, I=   1, J=  99

 MAXIMUM STEPSIZE WHICH MEETS STABILITY CRITERION OF THE ADVECTION TERM
 (FOR PURE FINITE-DIFFERENCE OPTION, MIXELM=0) 
 =  8.599    (WHEN MIN. R.F.=1)  AT K=   1, I=   1, J=  99


 TOTAL NUMBER OF POINT SOURCES/SINKS PRESENT IN THE FLOW MODEL =       100

 MAXIMUM STEPSIZE WHICH MEETS STABILITY CRITERION OF THE SINK & SOURCE TERM
 =  122.8    (WHEN MIN. R.F.=1)  AT K=   1, I=   1, J=   1

 MAXIMUM STEPSIZE WHICH MEETS STABILITY CRITERION OF THE DISPERSION TERM
 =  1.963    (WHEN MIN. R.F.=1)  AT K=   1, I=   1, J=  99
     5 CALLS TO GCG PACKAGE FOR TRANSPORT TIME STEP   9 IN FLOW TIME STEP   1 STRESS PERIOD   2
    16 TOTAL ITERATIONS
 
 SOLVING FOR HEAD 


     2 CALLS TO PCG ROUTINE FOR TIME STEP   1 IN STRESS PERIOD    2
    21 TOTAL ITERATIONS

 MAXIMUM HEAD CHANGE FOR EACH ITERATION (1 INDICATES THE FIRST INNER ITERATION):

    HEAD CHANGE    HEAD CHANGE    HEAD CHANGE    HEAD CHANGE    HEAD CHANGE 
   LAYER,ROW,COL  LAYER,ROW,COL  LAYER,ROW,COL  LAYER,ROW,COL  LAYER,ROW,COL
 ---------------------------------------------------------------------------
  1  0.2104E-02  0  0.6701E-03  0  0.2617E-03  0  0.1122E-03  0  0.6289E-04
   ( 50,  1, 77)  ( 48,  1, 83)  ( 45,  1, 87)  ( 41,  1, 90)  ( 37,  1, 92)
  0  0.4529E-04  0 -0.2948E-04  0 -0.2085E-04  0 -0.1166E-04  0 -0.7603E-05
   ( 50,  1, 67)  (  6,  1, 73)  (  2,  1, 75)  (  3,  1, 66)  (  1,  1, 69)
  0 -0.5173E-05  0 -0.3237E-05  0  0.2407E-05  0  0.2104E-05  0  0.2257E-05
   (  2,  1, 59)  (  3,  1, 52)  ( 44,  1, 15)  ( 42,  1,  1)  ( 50,  1,  1)
  0  0.1714E-05  0  0.1459E-05  0  0.1340E-05  0  0.1050E-05  0  0.8547E-06
   ( 37,  1,  2)  ( 43,  1, 10)  ( 43,  1,  1)  ( 48,  1,  7)  (  5,  1, 31)
  1  0.1795E-06
   ( 20,  1,  3)

 MAXIMUM RESIDUAL FOR EACH ITERATION (1 INDICATES THE FIRST INNER ITERATION):

    RESIDUAL       RESIDUAL       RESIDUAL       RESIDUAL       RESIDUAL    
   LAYER,ROW,COL  LAYER,ROW,COL  LAYER,ROW,COL  LAYER,ROW,COL  LAYER,ROW,COL
 ---------------------------------------------------------------------------
  1   13.90      0   7.731      0  -2.605      0   1.437      0  -1.437    
   ( 50,  1, 80)  ( 50,  1, 71)  ( 49,  1, 70)  ( 49,  1, 78)  ( 50,  1, 99)
  0  -1.379      0 -0.8952      0  0.5406      0  0.4573      0  0.3053    
   ( 49,  1, 99)  ( 46,  1, 99)  ( 50,  1, 99)  ( 48,  1, 99)  ( 45,  1, 99)
  0 -0.2192      0 -0.1629      0 -0.1091      0  0.9437E-01  0  0.7795E-01
   ( 49,  1, 99)  ( 47,  1, 99)  ( 45,  1, 99)  ( 49,  1, 99)  ( 47,  1, 99)
  0 -0.5411E-01  0 -0.5588E-01  0 -0.4814E-01  0  0.5355E-01  0  0.3894E-01
   ( 49,  1, 99)  ( 48,  1, 99)  ( 46,  1, 99)  ( 49,  1, 99)  ( 48,  1, 99)
  1  0.1631E-01
   ( 48,  1, 99)


 FLOW MODEL IS TRANSIENT
 FLOW MODEL CONTAINS CONSTANT-HEAD CELLS


 MAXIMUM STEPSIZE DURING WHICH ANY PARTICLE CANNOT MOVE MORE THAN ONE CELL
 =  8.809    (WHEN MIN. R.F.=1)  AT K=   1, I=   1, J=  99

 MAXIMUM STEPSIZE WHICH MEETS STABILITY CRITERION OF THE ADVECTION TERM
 (FOR PURE FINITE-DIFFERENCE OPTION, MIXELM=0) 
 =  8.604    (WHEN MIN. R.F.=1)  AT K=   1, I=   1, J=  99


 TOTAL NUMBER OF POINT SOURCES/SINKS PRESENT IN THE FLOW MODEL =       100

 MAXIMUM STEPSIZE WHICH MEETS STABILITY CRITERION OF THE SINK & SOURCE TERM
 =  122.8    (WHEN MIN. R.F.=1)  AT K=   1, I=   1, J=   1

 MAXIMUM STEPSIZE WHICH MEETS STABILITY CRITERION OF THE DISPERSION TERM
 =  1.964    (WHEN MIN. R.F.=1)  AT K=   1, I=   1, J=  99
     5 CALLS TO GCG PACKAGE FOR TRANSPORT TIME STEP  10 IN FLOW TIME STEP   1 STRESS PERIOD   2
    15 TOTAL ITERATIONS
 
 SOLVING FOR HEAD 


     2 CALLS TO PCG ROUTINE FOR TIME STEP   1 IN STRESS PERIOD    2
    20 TOTAL ITERATIONS

 MAXIMUM HEAD CHANGE FOR EACH ITERATION (1 INDICATES THE FIRST INNER ITERATION):

    HEAD CHANGE    HEAD CHANGE    HEAD CHANGE    HEAD CHANGE    HEAD CHANGE 
   LAYER,ROW,COL  LAYER,ROW,COL  LAYER,ROW,COL  LAYER,ROW,COL  LAYER,ROW,COL
 ---------------------------------------------------------------------------
  1  0.2085E-02  0  0.6656E-03  0  0.2611E-03  0  0.1124E-03  0  0.6336E-04
   ( 50,  1, 76)  ( 48,  1, 83)  ( 45,  1, 87)  ( 41,  1, 90)  ( 37,  1, 92)
  0  0.4488E-04  0 -0.2954E-04  0 -0.2094E-04  0 -0.1157E-04  0 -0.7493E-05
   ( 50,  1, 67)  (  6,  1, 73)  (  2,  1, 75)  (  3,  1, 66)  (  1,  1, 69)
  0 -0.5274E-05  0 -0.3318E-05  0  0.2238E-05  0  0.1954E-05  0  0.1999E-05
   (  2,  1, 58)  (  3,  1, 52)  ( 45,  1, 16)  ( 42,  1,  1)  ( 50,  1,  1)
  0  0.1460E-05  0  0.1211E-05  0  0.1127E-05  0  0.9108E-06  1  0.2064E-06
   ( 37,  1,  2)  ( 43,  1, 10)  ( 43,  1,  1)  ( 48,  1,  7)  (  3,  1, 29)

 MAXIMUM RESIDUAL FOR EACH ITERATION (1 INDICATES THE FIRST INNER ITERATION):

    RESIDUAL       RESIDUAL       RESIDUAL       RESIDUAL       RESIDUAL    
   LAYER,ROW,COL  LAYER,ROW,COL  LAYER,ROW,COL  LAYER,ROW,COL  LAYER,ROW,COL
 ---------------------------------------------------------------------------
  1   13.77      0   7.706      0  -2.606      0   1.429      0  -1.400    
   ( 50,  1, 80)  ( 50,  1, 70)  ( 49,  1, 69)  ( 49,  1, 78)  ( 50,  1, 99)
  0  -1.344      0 -0.8806      0  0.5286      0  0.4497      0  0.3014    
   ( 49,  1, 99)  ( 46,  1, 99)  ( 50,  1, 99)  ( 48,  1, 99)  ( 45,  1, 99)
  0 -0.2139      0 -0.1584      0 -0.1046      0  0.8739E-01  0  0.7003E-01
   ( 49,  1, 99)  ( 47,  1, 99)  ( 45,  1, 99)  ( 49,  1, 99)  ( 47,  1, 99)
  0 -0.4704E-01  0 -0.4687E-01  0 -0.3981E-01  0  0.4445E-01  1  0.1868E-01
   ( 49,  1, 99)  ( 48,  1, 99)  ( 46,  1, 99)  ( 49,  1, 99)  ( 49,  1, 99)


 FLOW MODEL IS TRANSIENT
 FLOW MODEL CONTAINS CONSTANT-HEAD CELLS


 MAXIMUM STEPSIZE DURING WHICH ANY PARTICLE CANNOT MOVE MORE THAN ONE CELL
 =  8.815    (WHEN MIN. R.F.=1)  AT K=   1, I=   1, J=  99

 MAXIMUM STEPSIZE WHICH MEETS STABILITY CRITERION OF THE ADVECTION TERM
 (FOR PURE FINITE-DIFFERENCE OPTION, MIXELM=0) 
 =  8.609    (WHEN MIN. R.F.=1)  AT K=   1, I=   1, J=  99


 TOTAL NUMBER OF POINT SOURCES/SINKS PRESENT IN THE FLOW MODEL =       100

 MAXIMUM STEPSIZE WHICH MEETS STABILITY CRITERION OF THE SINK & SOURCE TERM
 =  122.8    (WHEN MIN. R.F.=1)  AT K=   1, I=   1, J=   1

 MAXIMUM STEPSIZE WHICH MEETS STABILITY CRITERION OF THE DISPERSION TERM
 =  1.966    (WHEN MIN. R.F.=1)  AT K=   1, I=   1, J=  99
     5 CALLS TO GCG PACKAGE FOR TRANSPORT TIME STEP  11 IN FLOW TIME STEP   1 STRESS PERIOD   2
    15 TOTAL ITERATIONS
 
 SOLVING FOR HEAD 


     2 CALLS TO PCG ROUTINE FOR TIME STEP   1 IN STRESS PERIOD    2
    18 TOTAL ITERATIONS

 MAXIMUM HEAD CHANGE FOR EACH ITERATION (1 INDICATES THE FIRST INNER ITERATION):

    HEAD CHANGE    HEAD CHANGE    HEAD CHANGE    HEAD CHANGE    HEAD CHANGE 
   LAYER,ROW,COL  LAYER,ROW,COL  LAYER,ROW,COL  LAYER,ROW,COL  LAYER,ROW,COL
 ---------------------------------------------------------------------------
  1  0.2067E-02  0  0.6605E-03  0  0.2604E-03  0  0.1122E-03  0  0.6349E-04
   ( 50,  1, 76)  ( 48,  1, 83)  ( 45,  1, 86)  ( 41,  1, 90)  ( 37,  1, 92)
  0  0.4434E-04  0 -0.2937E-04  0 -0.2076E-04  0 -0.1112E-04  0 -0.7585E-05
   ( 50,  1, 67)  (  6,  1, 73)  (  2,  1, 75)  (  1,  1, 80)  (  1,  1, 66)
  0 -0.5541E-05  0 -0.3457E-05  0 -0.2166E-05  0  0.1663E-05  0  0.1649E-05
   (  2,  1, 58)  (  4,  1, 53)  (  5,  1, 47)  ( 42,  1,  1)  ( 50,  1,  1)
  0  0.1116E-05  0  0.8675E-06  1 -0.2003E-06
   ( 37,  1,  2)  ( 43,  1, 10)  (  3,  1, 83)

 MAXIMUM RESIDUAL FOR EACH ITERATION (1 INDICATES THE FIRST INNER ITERATION):

    RESIDUAL       RESIDUAL       RESIDUAL       RESIDUAL       RESIDUAL    
   LAYER,ROW,COL  LAYER,ROW,COL  LAYER,ROW,COL  LAYER,ROW,COL  LAYER,ROW,COL
 ---------------------------------------------------------------------------
  1   13.65      0   7.705      0  -2.609      0   1.423      0  -1.365    
   ( 50,  1, 79)  ( 50,  1, 70)  ( 49,  1, 69)  ( 49,  1, 77)  ( 50,  1, 99)
  0  -1.309      0 -0.8684      0  0.5166      0  0.4423      0  0.2973    
   ( 49,  1, 99)  ( 47,  1, 99)  ( 50,  1, 99)  ( 48,  1, 99)  ( 45,  1, 99)
  0 -0.2067      0 -0.1556      0 -0.1019      0  0.8040E-01  0  0.6132E-01
   ( 49,  1, 99)  ( 48,  1, 99)  ( 45,  1, 99)  ( 49,  1, 99)  ( 47,  1, 99)
  0  0.3791E-01  0 -0.3457E-01  1 -0.1362E-01
   ( 45,  1, 99)  ( 49,  1, 99)  ( 48,  1, 99)


 FLOW MODEL IS TRANSIENT
 FLOW MODEL CONTAINS CONSTANT-HEAD CELLS


 MAXIMUM STEPSIZE DURING WHICH ANY PARTICLE CANNOT MOVE MORE THAN ONE CELL
 =  8.821    (WHEN MIN. R.F.=1)  AT K=   1, I=   1, J=  99

 MAXIMUM STEPSIZE WHICH MEETS STABILITY CRITERION OF THE ADVECTION TERM
 (FOR PURE FINITE-DIFFERENCE OPTION, MIXELM=0) 
 =  8.615    (WHEN MIN. R.F.=1)  AT K=   1, I=   1, J=  99


 TOTAL NUMBER OF POINT SOURCES/SINKS PRESENT IN THE FLOW MODEL =       100

 MAXIMUM STEPSIZE WHICH MEETS STABILITY CRITERION OF THE SINK & SOURCE TERM
 =  122.8    (WHEN MIN. R.F.=1)  AT K=   1, I=   1, J=   1

 MAXIMUM STEPSIZE WHICH MEETS STABILITY CRITERION OF THE DISPERSION TERM
 =  1.967    (WHEN MIN. R.F.=1)  AT K=   1, I=   1, J=  99
     5 CALLS TO GCG PACKAGE FOR TRANSPORT TIME STEP  12 IN FLOW TIME STEP   1 STRESS PERIOD   2
    15 TOTAL ITERATIONS
 
 SOLVING FOR HEAD 


     2 CALLS TO PCG ROUTINE FOR TIME STEP   1 IN STRESS PERIOD    2
    18 TOTAL ITERATIONS

 MAXIMUM HEAD CHANGE FOR EACH ITERATION (1 INDICATES THE FIRST INNER ITERATION):

    HEAD CHANGE    HEAD CHANGE    HEAD CHANGE    HEAD CHANGE    HEAD CHANGE 
   LAYER,ROW,COL  LAYER,ROW,COL  LAYER,ROW,COL  LAYER,ROW,COL  LAYER,ROW,COL
 ---------------------------------------------------------------------------
  1  0.2048E-02  0  0.6552E-03  0  0.2600E-03  0  0.1124E-03  0  0.6376E-04
   ( 50,  1, 76)  ( 48,  1, 82)  ( 45,  1, 86)  ( 41,  1, 89)  ( 37,  1, 92)
  0  0.4405E-04  0 -0.2934E-04  0 -0.2078E-04  0 -0.1112E-04  0 -0.7586E-05
   ( 50,  1, 66)  (  6,  1, 73)  (  2,  1, 75)  (  1,  1, 80)  (  1,  1, 66)
  0 -0.5555E-05  0 -0.3472E-05  0 -0.2191E-05  0  0.1618E-05  0  0.1570E-05
   (  3,  1, 59)  (  4,  1, 53)  (  5,  1, 47)  ( 42,  1,  1)  ( 50,  1,  1)
  0  0.1055E-05  0  0.7932E-06  1 -0.1979E-06
   ( 37,  1,  2)  ( 43,  1, 10)  (  3,  1, 83)

 MAXIMUM RESIDUAL FOR EACH ITERATION (1 INDICATES THE FIRST INNER ITERATION):

    RESIDUAL       RESIDUAL       RESIDUAL       RESIDUAL       RESIDUAL    
   LAYER,ROW,COL  LAYER,ROW,COL  LAYER,ROW,COL  LAYER,ROW,COL  LAYER,ROW,COL
 ---------------------------------------------------------------------------
  1   13.56      0   7.671      0  -2.596      0   1.424      0  -1.331    
   ( 50,  1, 79)  ( 50,  1, 70)  ( 49,  1, 69)  ( 49,  1, 77)  ( 50,  1, 99)
  0  -1.278      0 -0.8566      0  0.5054      0  0.4359      0  0.2939    
   ( 49,  1, 99)  ( 47,  1, 99)  ( 50,  1, 99)  ( 48,  1, 99)  ( 45,  1, 99)
  0 -0.2038      0 -0.1534      0 -0.1009      0  0.7849E-01  0  0.5931E-01
   ( 49,  1, 99)  ( 48,  1, 99)  ( 45,  1, 99)  ( 49,  1, 99)  ( 47,  1, 99)
  0  0.3633E-01  0 -0.3248E-01  1 -0.1282E-01
   ( 45,  1, 99)  ( 49,  1, 99)  ( 48,  1, 99)


 FLOW MODEL IS TRANSIENT
 FLOW MODEL CONTAINS CONSTANT-HEAD CELLS


 MAXIMUM STEPSIZE DURING WHICH ANY PARTICLE CANNOT MOVE MORE THAN ONE CELL
 =  8.826    (WHEN MIN. R.F.=1)  AT K=   1, I=   1, J=  99

 MAXIMUM STEPSIZE WHICH MEETS STABILITY CRITERION OF THE ADVECTION TERM
 (FOR PURE FINITE-DIFFERENCE OPTION, MIXELM=0) 
 =  8.620    (WHEN MIN. R.F.=1)  AT K=   1, I=   1, J=  99


 TOTAL NUMBER OF POINT SOURCES/SINKS PRESENT IN THE FLOW MODEL =       100

 MAXIMUM STEPSIZE WHICH MEETS STABILITY CRITERION OF THE SINK & SOURCE TERM
 =  122.8    (WHEN MIN. R.F.=1)  AT K=   1, I=   1, J=   1

 MAXIMUM STEPSIZE WHICH MEETS STABILITY CRITERION OF THE DISPERSION TERM
 =  1.968    (WHEN MIN. R.F.=1)  AT K=   1, I=   1, J=  99
     5 CALLS TO GCG PACKAGE FOR TRANSPORT TIME STEP  13 IN FLOW TIME STEP   1 STRESS PERIOD   2
    15 TOTAL ITERATIONS
 
 SOLVING FOR HEAD 


     2 CALLS TO PCG ROUTINE FOR TIME STEP   1 IN STRESS PERIOD    2
    17 TOTAL ITERATIONS

 MAXIMUM HEAD CHANGE FOR EACH ITERATION (1 INDICATES THE FIRST INNER ITERATION):

    HEAD CHANGE    HEAD CHANGE    HEAD CHANGE    HEAD CHANGE    HEAD CHANGE 
   LAYER,ROW,COL  LAYER,ROW,COL  LAYER,ROW,COL  LAYER,ROW,COL  LAYER,ROW,COL
 ---------------------------------------------------------------------------
  1  0.2026E-02  0  0.6519E-03  0  0.2597E-03  0  0.1126E-03  0  0.6400E-04
   ( 50,  1, 76)  ( 48,  1, 82)  ( 45,  1, 86)  ( 41,  1, 89)  ( 37,  1, 92)
  0  0.4368E-04  0 -0.2929E-04  0 -0.2078E-04  0 -0.1110E-04  0 -0.7693E-05
   ( 50,  1, 66)  (  6,  1, 73)  (  2,  1, 75)  (  1,  1, 79)  (  1,  1, 65)
  0 -0.5644E-05  0 -0.3564E-05  0 -0.2259E-05  0  0.1491E-05  0  0.1408E-05
   (  3,  1, 59)  (  4,  1, 52)  (  5,  1, 47)  ( 42,  1,  1)  ( 50,  1,  1)
  0  0.9030E-06  1  0.2018E-06
   ( 39,  1,  3)  ( 44,  1, 10)

 MAXIMUM RESIDUAL FOR EACH ITERATION (1 INDICATES THE FIRST INNER ITERATION):

    RESIDUAL       RESIDUAL       RESIDUAL       RESIDUAL       RESIDUAL    
   LAYER,ROW,COL  LAYER,ROW,COL  LAYER,ROW,COL  LAYER,ROW,COL  LAYER,ROW,COL
 ---------------------------------------------------------------------------
  1   13.46      0   7.604      0  -2.568      0   1.421      0  -1.297    
   ( 50,  1, 79)  ( 50,  1, 70)  ( 49,  1, 69)  ( 49,  1, 77)  ( 50,  1, 99)
  0  -1.245      0 -0.8455      0 -0.4971      0  0.4296      0  0.2909    
   ( 49,  1, 99)  ( 47,  1, 99)  ( 43,  1, 99)  ( 48,  1, 99)  ( 45,  1, 99)
  0 -0.2003      0 -0.1511      0 -0.9959E-01  0  0.7598E-01  0  0.5655E-01
   ( 49,  1, 99)  ( 48,  1, 99)  ( 45,  1, 99)  ( 49,  1, 99)  ( 47,  1, 99)
  0  0.3425E-01  1  0.1497E-01
   ( 45,  1, 99)  ( 45,  1, 99)


 FLOW MODEL IS TRANSIENT
 FLOW MODEL CONTAINS CONSTANT-HEAD CELLS


 MAXIMUM STEPSIZE DURING WHICH ANY PARTICLE CANNOT MOVE MORE THAN ONE CELL
 =  8.832    (WHEN MIN. R.F.=1)  AT K=   1, I=   1, J=  99

 MAXIMUM STEPSIZE WHICH MEETS STABILITY CRITERION OF THE ADVECTION TERM
 (FOR PURE FINITE-DIFFERENCE OPTION, MIXELM=0) 
 =  8.626    (WHEN MIN. R.F.=1)  AT K=   1, I=   1, J=  99


 TOTAL NUMBER OF POINT SOURCES/SINKS PRESENT IN THE FLOW MODEL =       100

 MAXIMUM STEPSIZE WHICH MEETS STABILITY CRITERION OF THE SINK & SOURCE TERM
 =  122.8    (WHEN MIN. R.F.=1)  AT K=   1, I=   1, J=   1

 MAXIMUM STEPSIZE WHICH MEETS STABILITY CRITERION OF THE DISPERSION TERM
 =  1.969    (WHEN MIN. R.F.=1)  AT K=   1, I=   1, J=  99
     5 CALLS TO GCG PACKAGE FOR TRANSPORT TIME STEP  14 IN FLOW TIME STEP   1 STRESS PERIOD   2
    15 TOTAL ITERATIONS
 
 SOLVING FOR HEAD 


     2 CALLS TO PCG ROUTINE FOR TIME STEP   1 IN STRESS PERIOD    2
    17 TOTAL ITERATIONS

 MAXIMUM HEAD CHANGE FOR EACH ITERATION (1 INDICATES THE FIRST INNER ITERATION):

    HEAD CHANGE    HEAD CHANGE    HEAD CHANGE    HEAD CHANGE    HEAD CHANGE 
   LAYER,ROW,COL  LAYER,ROW,COL  LAYER,ROW,COL  LAYER,ROW,COL  LAYER,ROW,COL
 ---------------------------------------------------------------------------
  1  0.2008E-02  0  0.6479E-03  0  0.2590E-03  0  0.1127E-03  0  0.6422E-04
   ( 50,  1, 75)  ( 48,  1, 82)  ( 45,  1, 86)  ( 41,  1, 89)  ( 37,  1, 92)
  0  0.4327E-04  0 -0.2968E-04  0 -0.2117E-04  0 -0.1148E-04  0 -0.7610E-05
   ( 50,  1, 66)  (  6,  1, 72)  (  2,  1, 75)  (  1,  1, 79)  (  1,  1, 65)
  0 -0.5659E-05  0 -0.3597E-05  0 -0.2302E-05  0  0.1490E-05  0  0.1336E-05
   (  2,  1, 57)  (  4,  1, 52)  (  5,  1, 47)  ( 43,  1,  1)  ( 50,  1,  1)
  0  0.8649E-06  1  0.1926E-06
   ( 37,  1,  2)  ( 33,  1, 11)

 MAXIMUM RESIDUAL FOR EACH ITERATION (1 INDICATES THE FIRST INNER ITERATION):

    RESIDUAL       RESIDUAL       RESIDUAL       RESIDUAL       RESIDUAL    
   LAYER,ROW,COL  LAYER,ROW,COL  LAYER,ROW,COL  LAYER,ROW,COL  LAYER,ROW,COL
 ---------------------------------------------------------------------------
  1   13.33      0   7.594      0  -2.574      0   1.413      0  -1.261    
   ( 50,  1, 79)  ( 50,  1, 69)  ( 49,  1, 68)  ( 49,  1, 77)  ( 50,  1, 99)
  0  -1.212      0 -0.8352      0 -0.4947      0  0.4245      0  0.2879    
   ( 49,  1, 99)  ( 47,  1, 99)  ( 43,  1, 99)  ( 48,  1, 99)  ( 45,  1, 99)
  0 -0.1982      0 -0.1475      0 -0.9792E-01  0  0.7440E-01  0  0.5538E-01
   ( 49,  1, 99)  ( 47,  1, 99)  ( 45,  1, 99)  ( 49,  1, 99)  ( 47,  1, 99)
  0  0.3343E-01  1  0.1471E-01
   ( 45,  1, 99)  ( 45,  1, 99)


 FLOW MODEL IS TRANSIENT
 FLOW MODEL CONTAINS CONSTANT-HEAD CELLS


 MAXIMUM STEPSIZE DURING WHICH ANY PARTICLE CANNOT MOVE MORE THAN ONE CELL
 =  8.837    (WHEN MIN. R.F.=1)  AT K=   1, I=   1, J=  99

 MAXIMUM STEPSIZE WHICH MEETS STABILITY CRITERION OF THE ADVECTION TERM
 (FOR PURE FINITE-DIFFERENCE OPTION, MIXELM=0) 
 =  8.631    (WHEN MIN. R.F.=1)  AT K=   1, I=   1, J=  99


 TOTAL NUMBER OF POINT SOURCES/SINKS PRESENT IN THE FLOW MODEL =       100

 MAXIMUM STEPSIZE WHICH MEETS STABILITY CRITERION OF THE SINK & SOURCE TERM
 =  122.8    (WHEN MIN. R.F.=1)  AT K=   1, I=   1, J=   1

 MAXIMUM STEPSIZE WHICH MEETS STABILITY CRITERION OF THE DISPERSION TERM
 =  1.971    (WHEN MIN. R.F.=1)  AT K=   1, I=   1, J=  99
     5 CALLS TO GCG PACKAGE FOR TRANSPORT TIME STEP  15 IN FLOW TIME STEP   1 STRESS PERIOD   2
    15 TOTAL ITERATIONS
 
 SOLVING FOR HEAD 


     2 CALLS TO PCG ROUTINE FOR TIME STEP   1 IN STRESS PERIOD    2
    17 TOTAL ITERATIONS

 MAXIMUM HEAD CHANGE FOR EACH ITERATION (1 INDICATES THE FIRST INNER ITERATION):

    HEAD CHANGE    HEAD CHANGE    HEAD CHANGE    HEAD CHANGE    HEAD CHANGE 
   LAYER,ROW,COL  LAYER,ROW,COL  LAYER,ROW,COL  LAYER,ROW,COL  LAYER,ROW,COL
 ---------------------------------------------------------------------------
  1  0.1992E-02  0  0.6433E-03  0  0.2582E-03  0  0.1129E-03  0  0.6442E-04
   ( 50,  1, 75)  ( 48,  1, 82)  ( 45,  1, 86)  ( 41,  1, 89)  ( 37,  1, 91)
  0  0.4286E-04  0 -0.2952E-04  0 -0.2107E-04  0 -0.1152E-04  0 -0.7656E-05
   ( 50,  1, 66)  (  6,  1, 72)  (  2,  1, 75)  (  1,  1, 79)  (  1,  1, 65)
  0 -0.5603E-05  0 -0.3583E-05  0 -0.2350E-05  0 -0.1437E-05  0  0.1242E-05
   (  2,  1, 57)  (  4,  1, 52)  (  5,  1, 47)  (  5,  1, 40)  ( 50,  1,  1)
  0  0.7982E-06  1 -0.1926E-06
   ( 38,  1,  2)  (  2,  1, 88)

 MAXIMUM RESIDUAL FOR EACH ITERATION (1 INDICATES THE FIRST INNER ITERATION):

    RESIDUAL       RESIDUAL       RESIDUAL       RESIDUAL       RESIDUAL    
   LAYER,ROW,COL  LAYER,ROW,COL  LAYER,ROW,COL  LAYER,ROW,COL  LAYER,ROW,COL
 ---------------------------------------------------------------------------
  1   13.24      0   7.589      0  -2.576      0   1.409      0  -1.229    
   ( 50,  1, 78)  ( 50,  1, 69)  ( 49,  1, 68)  ( 49,  1, 76)  ( 50,  1, 99)
  0  -1.181      0 -0.8237      0 -0.4892      0  0.4181      0  0.2846    
   ( 49,  1, 99)  ( 47,  1, 99)  ( 43,  1, 99)  ( 48,  1, 99)  ( 45,  1, 99)
  0 -0.1957      0 -0.1461      0 -0.9719E-01  0  0.7356E-01  0  0.5491E-01
   ( 49,  1, 99)  ( 47,  1, 99)  ( 45,  1, 99)  ( 49,  1, 99)  ( 47,  1, 99)
  0  0.3325E-01  1  0.1464E-01
   ( 44,  1, 99)  ( 44,  1, 99)


 FLOW MODEL IS TRANSIENT
 FLOW MODEL CONTAINS CONSTANT-HEAD CELLS


 MAXIMUM STEPSIZE DURING WHICH ANY PARTICLE CANNOT MOVE MORE THAN ONE CELL
 =  8.843    (WHEN MIN. R.F.=1)  AT K=   1, I=   1, J=  99

 MAXIMUM STEPSIZE WHICH MEETS STABILITY CRITERION OF THE ADVECTION TERM
 (FOR PURE FINITE-DIFFERENCE OPTION, MIXELM=0) 
 =  8.636    (WHEN MIN. R.F.=1)  AT K=   1, I=   1, J=  99


 TOTAL NUMBER OF POINT SOURCES/SINKS PRESENT IN THE FLOW MODEL =       100

 MAXIMUM STEPSIZE WHICH MEETS STABILITY CRITERION OF THE SINK & SOURCE TERM
 =  122.8    (WHEN MIN. R.F.=1)  AT K=   1, I=   1, J=   1

 MAXIMUM STEPSIZE WHICH MEETS STABILITY CRITERION OF THE DISPERSION TERM
 =  1.972    (WHEN MIN. R.F.=1)  AT K=   1, I=   1, J=  99
     5 CALLS TO GCG PACKAGE FOR TRANSPORT TIME STEP  16 IN FLOW TIME STEP   1 STRESS PERIOD   2
    15 TOTAL ITERATIONS
 
 SOLVING FOR HEAD 


     2 CALLS TO PCG ROUTINE FOR TIME STEP   1 IN STRESS PERIOD    2
    17 TOTAL ITERATIONS

 MAXIMUM HEAD CHANGE FOR EACH ITERATION (1 INDICATES THE FIRST INNER ITERATION):

    HEAD CHANGE    HEAD CHANGE    HEAD CHANGE    HEAD CHANGE    HEAD CHANGE 
   LAYER,ROW,COL  LAYER,ROW,COL  LAYER,ROW,COL  LAYER,ROW,COL  LAYER,ROW,COL
 ---------------------------------------------------------------------------
  1  0.1975E-02  0  0.6382E-03  0  0.2573E-03  0  0.1127E-03  0  0.6464E-04
   ( 50,  1, 75)  ( 48,  1, 82)  ( 45,  1, 85)  ( 41,  1, 89)  ( 37,  1, 91)
  0  0.4257E-04  0 -0.2948E-04  0 -0.2102E-04  0 -0.1148E-04  0 -0.7737E-05
   ( 50,  1, 65)  (  6,  1, 72)  (  2,  1, 75)  (  1,  1, 79)  (  1,  1, 65)
  0 -0.5707E-05  0 -0.3657E-05  0 -0.2398E-05  0 -0.1462E-05  0  0.1190E-05
   (  3,  1, 58)  (  4,  1, 52)  (  5,  1, 46)  (  6,  1, 41)  ( 50,  1,  1)
  0  0.7566E-06  1 -0.2034E-06
   ( 41,  1, 10)  (  2,  1, 88)

 MAXIMUM RESIDUAL FOR EACH ITERATION (1 INDICATES THE FIRST INNER ITERATION):

    RESIDUAL       RESIDUAL       RESIDUAL       RESIDUAL       RESIDUAL    
   LAYER,ROW,COL  LAYER,ROW,COL  LAYER,ROW,COL  LAYER,ROW,COL  LAYER,ROW,COL
 ---------------------------------------------------------------------------
  1   13.15      0   7.552      0  -2.565      0   1.410      0  -1.196    
   ( 50,  1, 78)  ( 50,  1, 69)  ( 49,  1, 68)  ( 49,  1, 76)  ( 50,  1, 99)
  0  -1.149      0 -0.8119      0 -0.4850      0  0.4124      0  0.2820    
   ( 49,  1, 99)  ( 47,  1, 99)  ( 43,  1, 99)  ( 48,  1, 99)  ( 45,  1, 99)
  0 -0.1930      0 -0.1449      0 -0.9741E-01  0  0.7330E-01  0  0.5500E-01
   ( 49,  1, 99)  ( 47,  1, 99)  ( 45,  1, 99)  ( 49,  1, 99)  ( 47,  1, 99)
  0  0.3383E-01  1  0.1472E-01
   ( 44,  1, 99)  ( 44,  1, 99)


 FLOW MODEL IS TRANSIENT
 FLOW MODEL CONTAINS CONSTANT-HEAD CELLS


 MAXIMUM STEPSIZE DURING WHICH ANY PARTICLE CANNOT MOVE MORE THAN ONE CELL
 =  8.848    (WHEN MIN. R.F.=1)  AT K=   1, I=   1, J=  99

 MAXIMUM STEPSIZE WHICH MEETS STABILITY CRITERION OF THE ADVECTION TERM
 (FOR PURE FINITE-DIFFERENCE OPTION, MIXELM=0) 
 =  8.641    (WHEN MIN. R.F.=1)  AT K=   1, I=   1, J=  99


 TOTAL NUMBER OF POINT SOURCES/SINKS PRESENT IN THE FLOW MODEL =       100

 MAXIMUM STEPSIZE WHICH MEETS STABILITY CRITERION OF THE SINK & SOURCE TERM
 =  122.8    (WHEN MIN. R.F.=1)  AT K=   1, I=   1, J=   1

 MAXIMUM STEPSIZE WHICH MEETS STABILITY CRITERION OF THE DISPERSION TERM
 =  1.973    (WHEN MIN. R.F.=1)  AT K=   1, I=   1, J=  99
     5 CALLS TO GCG PACKAGE FOR TRANSPORT TIME STEP  17 IN FLOW TIME STEP   1 STRESS PERIOD   2
    15 TOTAL ITERATIONS
 
 SOLVING FOR HEAD 


     2 CALLS TO PCG ROUTINE FOR TIME STEP   1 IN STRESS PERIOD    2
    17 TOTAL ITERATIONS

 MAXIMUM HEAD CHANGE FOR EACH ITERATION (1 INDICATES THE FIRST INNER ITERATION):

    HEAD CHANGE    HEAD CHANGE    HEAD CHANGE    HEAD CHANGE    HEAD CHANGE 
   LAYER,ROW,COL  LAYER,ROW,COL  LAYER,ROW,COL  LAYER,ROW,COL  LAYER,ROW,COL
 ---------------------------------------------------------------------------
  1  0.1956E-02  0  0.6340E-03  0  0.2569E-03  0  0.1126E-03  0  0.6485E-04
   ( 50,  1, 75)  ( 48,  1, 81)  ( 45,  1, 85)  ( 41,  1, 89)  ( 37,  1, 91)
  0  0.4226E-04  0 -0.2933E-04  0 -0.2091E-04  0 -0.1139E-04  0 -0.7904E-05
   ( 50,  1, 65)  (  6,  1, 72)  (  2,  1, 75)  (  1,  1, 79)  (  1,  1, 64)
  0 -0.5811E-05  0 -0.3715E-05  0 -0.2444E-05  0 -0.1503E-05  0  0.1151E-05
   (  3,  1, 58)  (  4,  1, 52)  (  5,  1, 46)  (  6,  1, 41)  ( 50,  1,  1)
  0  0.7372E-06  1 -0.2160E-06
   ( 38,  1,  2)  (  2,  1, 88)

 MAXIMUM RESIDUAL FOR EACH ITERATION (1 INDICATES THE FIRST INNER ITERATION):

    RESIDUAL       RESIDUAL       RESIDUAL       RESIDUAL       RESIDUAL    
   LAYER,ROW,COL  LAYER,ROW,COL  LAYER,ROW,COL  LAYER,ROW,COL  LAYER,ROW,COL
 ---------------------------------------------------------------------------
  1   13.05      0   7.487      0  -2.562      0   1.407      0  -1.164    
   ( 50,  1, 78)  ( 50,  1, 69)  ( 50,  1, 83)  ( 49,  1, 76)  ( 50,  1, 99)
  0  -1.117      0 -0.8011      0 -0.4805      0  0.4069      0  0.2796    
   ( 49,  1, 99)  ( 47,  1, 99)  ( 43,  1, 99)  ( 48,  1, 99)  ( 45,  1, 99)
  0 -0.1903      0 -0.1440      0 -0.9768E-01  0  0.7321E-01  0  0.5536E-01
   ( 49,  1, 99)  ( 47,  1, 99)  ( 45,  1, 99)  ( 49,  1, 99)  ( 47,  1, 99)
  0  0.3469E-01  1  0.1489E-01
   ( 44,  1, 99)  ( 44,  1, 99)


 FLOW MODEL IS TRANSIENT
 FLOW MODEL CONTAINS CONSTANT-HEAD CELLS


 MAXIMUM STEPSIZE DURING WHICH ANY PARTICLE CANNOT MOVE MORE THAN ONE CELL
 =  8.854    (WHEN MIN. R.F.=1)  AT K=   1, I=   1, J=  99

 MAXIMUM STEPSIZE WHICH MEETS STABILITY CRITERION OF THE ADVECTION TERM
 (FOR PURE FINITE-DIFFERENCE OPTION, MIXELM=0) 
 =  8.647    (WHEN MIN. R.F.=1)  AT K=   1, I=   1, J=  99


 TOTAL NUMBER OF POINT SOURCES/SINKS PRESENT IN THE FLOW MODEL =       100

 MAXIMUM STEPSIZE WHICH MEETS STABILITY CRITERION OF THE SINK & SOURCE TERM
 =  122.8    (WHEN MIN. R.F.=1)  AT K=   1, I=   1, J=   1

 MAXIMUM STEPSIZE WHICH MEETS STABILITY CRITERION OF THE DISPERSION TERM
 =  1.974    (WHEN MIN. R.F.=1)  AT K=   1, I=   1, J=  99
     5 CALLS TO GCG PACKAGE FOR TRANSPORT TIME STEP  18 IN FLOW TIME STEP   1 STRESS PERIOD   2
    15 TOTAL ITERATIONS
 
 SOLVING FOR HEAD 


     2 CALLS TO PCG ROUTINE FOR TIME STEP   1 IN STRESS PERIOD    2
    17 TOTAL ITERATIONS

 MAXIMUM HEAD CHANGE FOR EACH ITERATION (1 INDICATES THE FIRST INNER ITERATION):

    HEAD CHANGE    HEAD CHANGE    HEAD CHANGE    HEAD CHANGE    HEAD CHANGE 
   LAYER,ROW,COL  LAYER,ROW,COL  LAYER,ROW,COL  LAYER,ROW,COL  LAYER,ROW,COL
 ---------------------------------------------------------------------------
  1  0.1937E-02  0  0.6304E-03  0  0.2565E-03  0  0.1128E-03  0  0.6502E-04
   ( 50,  1, 74)  ( 48,  1, 81)  ( 45,  1, 85)  ( 41,  1, 88)  ( 37,  1, 91)
  0  0.4184E-04  0 -0.2937E-04  0 -0.2093E-04  0 -0.1139E-04  0 -0.8093E-05
   ( 50,  1, 65)  (  6,  1, 72)  (  2,  1, 75)  (  1,  1, 79)  (  1,  1, 64)
  0 -0.5975E-05  0 -0.3861E-05  0 -0.2594E-05  0 -0.1655E-05  0 -0.1143E-05
   (  3,  1, 58)  (  4,  1, 51)  (  5,  1, 46)  (  6,  1, 40)  (  2,  1, 42)
  0 -0.7789E-06  1 -0.2528E-06
   (  4,  1, 36)  (  2,  1, 88)

 MAXIMUM RESIDUAL FOR EACH ITERATION (1 INDICATES THE FIRST INNER ITERATION):

    RESIDUAL       RESIDUAL       RESIDUAL       RESIDUAL       RESIDUAL    
   LAYER,ROW,COL  LAYER,ROW,COL  LAYER,ROW,COL  LAYER,ROW,COL  LAYER,ROW,COL
 ---------------------------------------------------------------------------
  1   12.93      0   7.475      0  -2.573      0   1.399      0  -1.132    
   ( 50,  1, 78)  ( 50,  1, 68)  ( 50,  1, 82)  ( 49,  1, 76)  ( 50,  1, 99)
  0  -1.087      0 -0.7902      0 -0.4767      0  0.4021      0  0.2782    
   ( 49,  1, 99)  ( 47,  1, 99)  ( 43,  1, 99)  ( 48,  1, 99)  ( 45,  1, 99)
  0 -0.1891      0 -0.1451      0 -0.1001      0  0.7635E-01  0  0.5989E-01
   ( 49,  1, 99)  ( 47,  1, 99)  ( 45,  1, 99)  ( 49,  1, 99)  ( 47,  1, 99)
  0  0.3993E-01  1  0.1670E-01
   ( 44,  1, 99)  ( 44,  1, 99)


 FLOW MODEL IS TRANSIENT
 FLOW MODEL CONTAINS CONSTANT-HEAD CELLS


 MAXIMUM STEPSIZE DURING WHICH ANY PARTICLE CANNOT MOVE MORE THAN ONE CELL
 =  8.859    (WHEN MIN. R.F.=1)  AT K=   1, I=   1, J=  99

 MAXIMUM STEPSIZE WHICH MEETS STABILITY CRITERION OF THE ADVECTION TERM
 (FOR PURE FINITE-DIFFERENCE OPTION, MIXELM=0) 
 =  8.652    (WHEN MIN. R.F.=1)  AT K=   1, I=   1, J=  99


 TOTAL NUMBER OF POINT SOURCES/SINKS PRESENT IN THE FLOW MODEL =       100

 MAXIMUM STEPSIZE WHICH MEETS STABILITY CRITERION OF THE SINK & SOURCE TERM
 =  122.8    (WHEN MIN. R.F.=1)  AT K=   1, I=   1, J=   1

 MAXIMUM STEPSIZE WHICH MEETS STABILITY CRITERION OF THE DISPERSION TERM
 =  1.975    (WHEN MIN. R.F.=1)  AT K=   1, I=   1, J=  99
     5 CALLS TO GCG PACKAGE FOR TRANSPORT TIME STEP  19 IN FLOW TIME STEP   1 STRESS PERIOD   2
    15 TOTAL ITERATIONS
 
 SOLVING FOR HEAD 


     2 CALLS TO PCG ROUTINE FOR TIME STEP   1 IN STRESS PERIOD    2
    17 TOTAL ITERATIONS

 MAXIMUM HEAD CHANGE FOR EACH ITERATION (1 INDICATES THE FIRST INNER ITERATION):

    HEAD CHANGE    HEAD CHANGE    HEAD CHANGE    HEAD CHANGE    HEAD CHANGE 
   LAYER,ROW,COL  LAYER,ROW,COL  LAYER,ROW,COL  LAYER,ROW,COL  LAYER,ROW,COL
 ---------------------------------------------------------------------------
  1  0.1924E-02  0  0.6264E-03  0  0.2558E-03  0  0.1128E-03  0  0.6514E-04
   ( 50,  1, 74)  ( 48,  1, 81)  ( 45,  1, 85)  ( 41,  1, 88)  ( 37,  1, 91)
  0  0.4148E-04  0 -0.2918E-04  0 -0.2077E-04  0 -0.1127E-04  0 -0.8198E-05
   ( 50,  1, 65)  (  5,  1, 71)  (  2,  1, 75)  (  1,  1, 79)  (  1,  1, 64)
  0 -0.5990E-05  0 -0.3831E-05  0 -0.2558E-05  0 -0.1617E-05  0 -0.1103E-05
   (  3,  1, 58)  (  4,  1, 51)  (  5,  1, 46)  (  6,  1, 40)  (  2,  1, 42)
  0 -0.7421E-06  1 -0.2502E-06
   (  3,  1, 37)  (  2,  1, 88)

 MAXIMUM RESIDUAL FOR EACH ITERATION (1 INDICATES THE FIRST INNER ITERATION):

    RESIDUAL       RESIDUAL       RESIDUAL       RESIDUAL       RESIDUAL    
   LAYER,ROW,COL  LAYER,ROW,COL  LAYER,ROW,COL  LAYER,ROW,COL  LAYER,ROW,COL
 ---------------------------------------------------------------------------
  1   12.86      0   7.469      0  -2.582      0   1.397      0  -1.123    
   ( 50,  1, 77)  ( 50,  1, 68)  ( 50,  1, 82)  ( 49,  1, 75)  ( 50,  1, 66)
  0  -1.055      0 -0.7779      0 -0.4718      0  0.3962      0  0.2750    
   ( 49,  1, 99)  ( 47,  1, 99)  ( 43,  1, 99)  ( 48,  1, 99)  ( 45,  1, 99)
  0 -0.1856      0 -0.1430      0 -0.9907E-01  0  0.7459E-01  0  0.5805E-01
   ( 49,  1, 99)  ( 47,  1, 99)  ( 45,  1, 99)  ( 49,  1, 99)  ( 47,  1, 99)
  0  0.3855E-01  1  0.1601E-01
   ( 44,  1, 99)  ( 44,  1, 99)


 FLOW MODEL IS TRANSIENT
 FLOW MODEL CONTAINS CONSTANT-HEAD CELLS


 MAXIMUM STEPSIZE DURING WHICH ANY PARTICLE CANNOT MOVE MORE THAN ONE CELL
 =  8.865    (WHEN MIN. R.F.=1)  AT K=   1, I=   1, J=  99

 MAXIMUM STEPSIZE WHICH MEETS STABILITY CRITERION OF THE ADVECTION TERM
 (FOR PURE FINITE-DIFFERENCE OPTION, MIXELM=0) 
 =  8.657    (WHEN MIN. R.F.=1)  AT K=   1, I=   1, J=  99


 TOTAL NUMBER OF POINT SOURCES/SINKS PRESENT IN THE FLOW MODEL =       100

 MAXIMUM STEPSIZE WHICH MEETS STABILITY CRITERION OF THE SINK & SOURCE TERM
 =  122.8    (WHEN MIN. R.F.=1)  AT K=   1, I=   1, J=   1

 MAXIMUM STEPSIZE WHICH MEETS STABILITY CRITERION OF THE DISPERSION TERM
 =  1.977    (WHEN MIN. R.F.=1)  AT K=   1, I=   1, J=  99
     5 CALLS TO GCG PACKAGE FOR TRANSPORT TIME STEP  20 IN FLOW TIME STEP   1 STRESS PERIOD   2
    15 TOTAL ITERATIONS
 
 SOLVING FOR HEAD 


     2 CALLS TO PCG ROUTINE FOR TIME STEP   1 IN STRESS PERIOD    2
    17 TOTAL ITERATIONS

 MAXIMUM HEAD CHANGE FOR EACH ITERATION (1 INDICATES THE FIRST INNER ITERATION):

    HEAD CHANGE    HEAD CHANGE    HEAD CHANGE    HEAD CHANGE    HEAD CHANGE 
   LAYER,ROW,COL  LAYER,ROW,COL  LAYER,ROW,COL  LAYER,ROW,COL  LAYER,ROW,COL
 ---------------------------------------------------------------------------
  1  0.1908E-02  0  0.6219E-03  0  0.2549E-03  0  0.1128E-03  0  0.6520E-04
   ( 50,  1, 74)  ( 48,  1, 81)  ( 45,  1, 85)  ( 41,  1, 88)  ( 37,  1, 91)
  0  0.4123E-04  0 -0.2914E-04  0 -0.2070E-04  0 -0.1120E-04  0 -0.8286E-05
   ( 37,  1, 77)  (  5,  1, 71)  (  2,  1, 75)  (  1,  1, 79)  (  1,  1, 63)
  0 -0.6074E-05  0 -0.3915E-05  0 -0.2620E-05  0 -0.1678E-05  0 -0.1174E-05
   (  3,  1, 57)  (  4,  1, 51)  (  5,  1, 45)  (  6,  1, 40)  (  2,  1, 42)
  0 -0.8226E-06  1 -0.2699E-06
   (  4,  1, 36)  (  2,  1, 88)

 MAXIMUM RESIDUAL FOR EACH ITERATION (1 INDICATES THE FIRST INNER ITERATION):

    RESIDUAL       RESIDUAL       RESIDUAL       RESIDUAL       RESIDUAL    
   LAYER,ROW,COL  LAYER,ROW,COL  LAYER,ROW,COL  LAYER,ROW,COL  LAYER,ROW,COL
 ---------------------------------------------------------------------------
  1   12.78      0   7.435      0  -2.586      0   1.397      0  -1.121    
   ( 50,  1, 77)  ( 50,  1, 68)  ( 50,  1, 82)  ( 49,  1, 75)  ( 50,  1, 66)
  0  -1.026      0 -0.7672      0 -0.4673      0  0.3910      0  0.2731    
   ( 49,  1, 99)  ( 47,  1, 99)  ( 43,  1, 99)  ( 48,  1, 99)  ( 45,  1, 99)
  0 -0.1834      0 -0.1428      0 -0.1003      0  0.7583E-01  0  0.6010E-01
   ( 49,  1, 99)  ( 47,  1, 99)  ( 45,  1, 99)  ( 49,  1, 99)  ( 47,  1, 99)
  0  0.4123E-01  1  0.1693E-01
   ( 44,  1, 99)  ( 44,  1, 99)


 FLOW MODEL IS TRANSIENT
 FLOW MODEL CONTAINS CONSTANT-HEAD CELLS


 MAXIMUM STEPSIZE DURING WHICH ANY PARTICLE CANNOT MOVE MORE THAN ONE CELL
 =  8.870    (WHEN MIN. R.F.=1)  AT K=   1, I=   1, J=  99

 MAXIMUM STEPSIZE WHICH MEETS STABILITY CRITERION OF THE ADVECTION TERM
 (FOR PURE FINITE-DIFFERENCE OPTION, MIXELM=0) 
 =  8.662    (WHEN MIN. R.F.=1)  AT K=   1, I=   1, J=  99


 TOTAL NUMBER OF POINT SOURCES/SINKS PRESENT IN THE FLOW MODEL =       100

 MAXIMUM STEPSIZE WHICH MEETS STABILITY CRITERION OF THE SINK & SOURCE TERM
 =  122.8    (WHEN MIN. R.F.=1)  AT K=   1, I=   1, J=   1

 MAXIMUM STEPSIZE WHICH MEETS STABILITY CRITERION OF THE DISPERSION TERM
 =  1.978    (WHEN MIN. R.F.=1)  AT K=   1, I=   1, J=  99
     5 CALLS TO GCG PACKAGE FOR TRANSPORT TIME STEP  21 IN FLOW TIME STEP   1 STRESS PERIOD   2
    15 TOTAL ITERATIONS
 
 SOLVING FOR HEAD 


     2 CALLS TO PCG ROUTINE FOR TIME STEP   1 IN STRESS PERIOD    2
    17 TOTAL ITERATIONS

 MAXIMUM HEAD CHANGE FOR EACH ITERATION (1 INDICATES THE FIRST INNER ITERATION):

    HEAD CHANGE    HEAD CHANGE    HEAD CHANGE    HEAD CHANGE    HEAD CHANGE 
   LAYER,ROW,COL  LAYER,ROW,COL  LAYER,ROW,COL  LAYER,ROW,COL  LAYER,ROW,COL
 ---------------------------------------------------------------------------
  1  0.1891E-02  0  0.6170E-03  0  0.2539E-03  0  0.1127E-03  0  0.6522E-04
   ( 50,  1, 74)  ( 48,  1, 81)  ( 45,  1, 85)  ( 41,  1, 88)  ( 37,  1, 91)
  0  0.4115E-04  0 -0.2897E-04  0 -0.2054E-04  0 -0.1103E-04  0 -0.8477E-05
   ( 37,  1, 77)  (  5,  1, 71)  (  2,  1, 75)  (  1,  1, 79)  (  1,  1, 63)
  0 -0.6154E-05  0 -0.3933E-05  0 -0.2626E-05  0 -0.1691E-05  0 -0.1184E-05
   (  3,  1, 57)  (  4,  1, 51)  (  5,  1, 45)  (  6,  1, 40)  (  2,  1, 42)
  0 -0.8394E-06  1 -0.2784E-06
   (  2,  1, 36)  (  5,  1, 78)

 MAXIMUM RESIDUAL FOR EACH ITERATION (1 INDICATES THE FIRST INNER ITERATION):

    RESIDUAL       RESIDUAL       RESIDUAL       RESIDUAL       RESIDUAL    
   LAYER,ROW,COL  LAYER,ROW,COL  LAYER,ROW,COL  LAYER,ROW,COL  LAYER,ROW,COL
 ---------------------------------------------------------------------------
  1   12.68      0   7.374      0  -2.583      0  -1.398      0  -1.120    
   ( 50,  1, 77)  ( 50,  1, 68)  ( 50,  1, 82)  ( 50,  1, 86)  ( 50,  1, 65)
  0 -0.9956      0 -0.7548      0 -0.4626      0  0.3858      0  0.2706    
   ( 49,  1, 99)  ( 47,  1, 99)  ( 43,  1, 99)  ( 48,  1, 99)  ( 45,  1, 99)
  0 -0.1806      0 -0.1417      0 -0.1002      0  0.7550E-01  0  0.6004E-01
   ( 49,  1, 99)  ( 47,  1, 99)  ( 45,  1, 99)  ( 49,  1, 99)  ( 47,  1, 99)
  0  0.4164E-01  1  0.1687E-01
   ( 44,  1, 99)  ( 44,  1, 99)


 FLOW MODEL IS TRANSIENT
 FLOW MODEL CONTAINS CONSTANT-HEAD CELLS


 MAXIMUM STEPSIZE DURING WHICH ANY PARTICLE CANNOT MOVE MORE THAN ONE CELL
 =  8.876    (WHEN MIN. R.F.=1)  AT K=   1, I=   1, J=  99

 MAXIMUM STEPSIZE WHICH MEETS STABILITY CRITERION OF THE ADVECTION TERM
 (FOR PURE FINITE-DIFFERENCE OPTION, MIXELM=0) 
 =  8.668    (WHEN MIN. R.F.=1)  AT K=   1, I=   1, J=  99


 TOTAL NUMBER OF POINT SOURCES/SINKS PRESENT IN THE FLOW MODEL =       100

 MAXIMUM STEPSIZE WHICH MEETS STABILITY CRITERION OF THE SINK & SOURCE TERM
 =  122.8    (WHEN MIN. R.F.=1)  AT K=   1, I=   1, J=   1

 MAXIMUM STEPSIZE WHICH MEETS STABILITY CRITERION OF THE DISPERSION TERM
 =  1.979    (WHEN MIN. R.F.=1)  AT K=   1, I=   1, J=  99
     5 CALLS TO GCG PACKAGE FOR TRANSPORT TIME STEP  22 IN FLOW TIME STEP   1 STRESS PERIOD   2
    15 TOTAL ITERATIONS
 
 SOLVING FOR HEAD 


     2 CALLS TO PCG ROUTINE FOR TIME STEP   1 IN STRESS PERIOD    2
    17 TOTAL ITERATIONS

 MAXIMUM HEAD CHANGE FOR EACH ITERATION (1 INDICATES THE FIRST INNER ITERATION):

    HEAD CHANGE    HEAD CHANGE    HEAD CHANGE    HEAD CHANGE    HEAD CHANGE 
   LAYER,ROW,COL  LAYER,ROW,COL  LAYER,ROW,COL  LAYER,ROW,COL  LAYER,ROW,COL
 ---------------------------------------------------------------------------
  1  0.1873E-02  0  0.6134E-03  0  0.2534E-03  0  0.1125E-03  0  0.6533E-04
   ( 50,  1, 74)  ( 48,  1, 80)  ( 45,  1, 84)  ( 41,  1, 88)  ( 37,  1, 90)
  0  0.4103E-04  0 -0.2883E-04  0 -0.2038E-04  0 -0.1092E-04  0 -0.8516E-05
   ( 37,  1, 77)  (  5,  1, 71)  (  1,  1, 73)  (  1,  1, 79)  (  1,  1, 63)
  0 -0.6141E-05  0 -0.3908E-05  0 -0.2619E-05  0 -0.1681E-05  0 -0.1179E-05
   (  3,  1, 57)  (  4,  1, 51)  (  5,  1, 45)  (  6,  1, 39)  (  2,  1, 42)
  0 -0.8378E-06  1 -0.2807E-06
   (  3,  1, 36)  (  5,  1, 78)

 MAXIMUM RESIDUAL FOR EACH ITERATION (1 INDICATES THE FIRST INNER ITERATION):

    RESIDUAL       RESIDUAL       RESIDUAL       RESIDUAL       RESIDUAL    
   LAYER,ROW,COL  LAYER,ROW,COL  LAYER,ROW,COL  LAYER,ROW,COL  LAYER,ROW,COL
 ---------------------------------------------------------------------------
  1   12.57      0   7.348      0  -2.584      0  -1.401      0  -1.120    
   ( 50,  1, 77)  ( 50,  1, 67)  ( 50,  1, 81)  ( 50,  1, 86)  ( 50,  1, 65)
  0 -0.9658      0 -0.7434      0 -0.4572      0  0.3801      0  0.2676    
   ( 49,  1, 99)  ( 47,  1, 99)  ( 43,  1, 99)  ( 48,  1, 99)  ( 45,  1, 99)
  0 -0.1776      0 -0.1401      0 -0.9981E-01  0  0.7474E-01  0  0.5947E-01
   ( 49,  1, 99)  ( 47,  1, 99)  ( 45,  1, 99)  ( 49,  1, 99)  ( 47,  1, 99)
  0  0.4159E-01  1  0.1675E-01
   ( 44,  1, 99)  ( 44,  1, 99)


 FLOW MODEL IS TRANSIENT
 FLOW MODEL CONTAINS CONSTANT-HEAD CELLS


 MAXIMUM STEPSIZE DURING WHICH ANY PARTICLE CANNOT MOVE MORE THAN ONE CELL
 =  8.881    (WHEN MIN. R.F.=1)  AT K=   1, I=   1, J=  99

 MAXIMUM STEPSIZE WHICH MEETS STABILITY CRITERION OF THE ADVECTION TERM
 (FOR PURE FINITE-DIFFERENCE OPTION, MIXELM=0) 
 =  8.673    (WHEN MIN. R.F.=1)  AT K=   1, I=   1, J=  99


 TOTAL NUMBER OF POINT SOURCES/SINKS PRESENT IN THE FLOW MODEL =       100

 MAXIMUM STEPSIZE WHICH MEETS STABILITY CRITERION OF THE SINK & SOURCE TERM
 =  122.8    (WHEN MIN. R.F.=1)  AT K=   1, I=   1, J=   1

 MAXIMUM STEPSIZE WHICH MEETS STABILITY CRITERION OF THE DISPERSION TERM
 =  1.980    (WHEN MIN. R.F.=1)  AT K=   1, I=   1, J=  99
     5 CALLS TO GCG PACKAGE FOR TRANSPORT TIME STEP  23 IN FLOW TIME STEP   1 STRESS PERIOD   2
    15 TOTAL ITERATIONS
 
 SOLVING FOR HEAD 


     2 CALLS TO PCG ROUTINE FOR TIME STEP   1 IN STRESS PERIOD    2
    17 TOTAL ITERATIONS

 MAXIMUM HEAD CHANGE FOR EACH ITERATION (1 INDICATES THE FIRST INNER ITERATION):

    HEAD CHANGE    HEAD CHANGE    HEAD CHANGE    HEAD CHANGE    HEAD CHANGE 
   LAYER,ROW,COL  LAYER,ROW,COL  LAYER,ROW,COL  LAYER,ROW,COL  LAYER,ROW,COL
 ---------------------------------------------------------------------------
  1  0.1860E-02  0  0.6098E-03  0  0.2529E-03  0  0.1125E-03  0  0.6547E-04
   ( 50,  1, 73)  ( 48,  1, 80)  ( 45,  1, 84)  ( 41,  1, 87)  ( 37,  1, 90)
  0  0.4085E-04  0 -0.2867E-04  0 -0.2021E-04  0 -0.1096E-04  0 -0.8758E-05
   ( 38,  1, 77)  (  5,  1, 71)  (  2,  1, 75)  (  4,  1, 61)  (  2,  1, 64)
  0 -0.6261E-05  0 -0.3973E-05  0 -0.2687E-05  0 -0.1761E-05  0 -0.1264E-05
   (  3,  1, 57)  (  4,  1, 51)  (  5,  1, 45)  (  6,  1, 40)  (  2,  1, 42)
  0 -0.9445E-06  1 -0.3066E-06
   (  2,  1, 36)  (  5,  1, 78)

 MAXIMUM RESIDUAL FOR EACH ITERATION (1 INDICATES THE FIRST INNER ITERATION):

    RESIDUAL       RESIDUAL       RESIDUAL       RESIDUAL       RESIDUAL    
   LAYER,ROW,COL  LAYER,ROW,COL  LAYER,ROW,COL  LAYER,ROW,COL  LAYER,ROW,COL
 ---------------------------------------------------------------------------
  1   12.50      0   7.345      0  -2.596      0  -1.405      0  -1.119    
   ( 50,  1, 76)  ( 50,  1, 67)  ( 50,  1, 81)  ( 50,  1, 85)  ( 50,  1, 65)
  0 -0.9368      0 -0.7316      0 -0.4524      0  0.3754      0  0.2659    
   ( 49,  1, 99)  ( 47,  1, 99)  ( 43,  1, 99)  ( 48,  1, 99)  ( 45,  1, 99)
  0 -0.1758      0 -0.1403      0 -0.1012      0  0.7647E-01  0  0.6201E-01
   ( 49,  1, 99)  ( 47,  1, 99)  ( 45,  1, 99)  ( 49,  1, 99)  ( 47,  1, 99)
  0  0.4473E-01  1  0.1770E-01
   ( 44,  1, 99)  ( 44,  1, 99)


 FLOW MODEL IS TRANSIENT
 FLOW MODEL CONTAINS CONSTANT-HEAD CELLS


 MAXIMUM STEPSIZE DURING WHICH ANY PARTICLE CANNOT MOVE MORE THAN ONE CELL
 =  8.886    (WHEN MIN. R.F.=1)  AT K=   1, I=   1, J=  99

 MAXIMUM STEPSIZE WHICH MEETS STABILITY CRITERION OF THE ADVECTION TERM
 (FOR PURE FINITE-DIFFERENCE OPTION, MIXELM=0) 
 =  8.678    (WHEN MIN. R.F.=1)  AT K=   1, I=   1, J=  99


 TOTAL NUMBER OF POINT SOURCES/SINKS PRESENT IN THE FLOW MODEL =       100

 MAXIMUM STEPSIZE WHICH MEETS STABILITY CRITERION OF THE SINK & SOURCE TERM
 =  122.8    (WHEN MIN. R.F.=1)  AT K=   1, I=   1, J=   1

 MAXIMUM STEPSIZE WHICH MEETS STABILITY CRITERION OF THE DISPERSION TERM
 =  1.981    (WHEN MIN. R.F.=1)  AT K=   1, I=   1, J=  99
     5 CALLS TO GCG PACKAGE FOR TRANSPORT TIME STEP  24 IN FLOW TIME STEP   1 STRESS PERIOD   2
    15 TOTAL ITERATIONS
 
 SOLVING FOR HEAD 


     2 CALLS TO PCG ROUTINE FOR TIME STEP   1 IN STRESS PERIOD    2
    17 TOTAL ITERATIONS

 MAXIMUM HEAD CHANGE FOR EACH ITERATION (1 INDICATES THE FIRST INNER ITERATION):

    HEAD CHANGE    HEAD CHANGE    HEAD CHANGE    HEAD CHANGE    HEAD CHANGE 
   LAYER,ROW,COL  LAYER,ROW,COL  LAYER,ROW,COL  LAYER,ROW,COL  LAYER,ROW,COL
 ---------------------------------------------------------------------------
  1  0.1846E-02  0  0.6059E-03  0  0.2521E-03  0  0.1125E-03  0  0.6550E-04
   ( 50,  1, 73)  ( 48,  1, 80)  ( 45,  1, 84)  ( 41,  1, 87)  ( 37,  1, 90)
  0  0.4079E-04  0 -0.2847E-04  0 -0.2001E-04  0 -0.1094E-04  0 -0.8785E-05
   ( 37,  1, 76)  (  5,  1, 71)  (  2,  1, 75)  (  3,  1, 60)  (  2,  1, 64)
  0 -0.6212E-05  0 -0.3954E-05  0 -0.2668E-05  0 -0.1755E-05  0 -0.1257E-05
   (  3,  1, 57)  (  4,  1, 50)  (  5,  1, 45)  (  6,  1, 39)  (  2,  1, 42)
  0 -0.9395E-06  1 -0.3029E-06
   (  2,  1, 36)  (  5,  1, 78)

 MAXIMUM RESIDUAL FOR EACH ITERATION (1 INDICATES THE FIRST INNER ITERATION):

    RESIDUAL       RESIDUAL       RESIDUAL       RESIDUAL       RESIDUAL    
   LAYER,ROW,COL  LAYER,ROW,COL  LAYER,ROW,COL  LAYER,ROW,COL  LAYER,ROW,COL
 ---------------------------------------------------------------------------
  1   12.43      0   7.320      0  -2.599      0  -1.409      0  -1.116    
   ( 50,  1, 76)  ( 50,  1, 67)  ( 50,  1, 81)  ( 50,  1, 85)  ( 50,  1, 65)
  0 -0.9088      0 -0.7193      0 -0.4473      0  0.3698      0  0.2630    
   ( 49,  1, 99)  ( 47,  1, 99)  ( 43,  1, 99)  ( 48,  1, 99)  ( 45,  1, 99)
  0 -0.1729      0 -0.1388      0 -0.1008      0  0.7575E-01  0  0.6152E-01
   ( 49,  1, 99)  ( 48,  1, 99)  ( 45,  1, 99)  ( 49,  1, 99)  ( 47,  1, 99)
  0  0.4474E-01  1  0.1762E-01
   ( 44,  1, 99)  ( 44,  1, 99)


 FLOW MODEL IS TRANSIENT
 FLOW MODEL CONTAINS CONSTANT-HEAD CELLS


 MAXIMUM STEPSIZE DURING WHICH ANY PARTICLE CANNOT MOVE MORE THAN ONE CELL
 =  8.892    (WHEN MIN. R.F.=1)  AT K=   1, I=   1, J=  99

 MAXIMUM STEPSIZE WHICH MEETS STABILITY CRITERION OF THE ADVECTION TERM
 (FOR PURE FINITE-DIFFERENCE OPTION, MIXELM=0) 
 =  8.683    (WHEN MIN. R.F.=1)  AT K=   1, I=   1, J=  99


 TOTAL NUMBER OF POINT SOURCES/SINKS PRESENT IN THE FLOW MODEL =       100

 MAXIMUM STEPSIZE WHICH MEETS STABILITY CRITERION OF THE SINK & SOURCE TERM
 =  122.8    (WHEN MIN. R.F.=1)  AT K=   1, I=   1, J=   1

 MAXIMUM STEPSIZE WHICH MEETS STABILITY CRITERION OF THE DISPERSION TERM
 =  1.983    (WHEN MIN. R.F.=1)  AT K=   1, I=   1, J=  99
     5 CALLS TO GCG PACKAGE FOR TRANSPORT TIME STEP  25 IN FLOW TIME STEP   1 STRESS PERIOD   2
    15 TOTAL ITERATIONS
 
 SOLVING FOR HEAD 


     2 CALLS TO PCG ROUTINE FOR TIME STEP   1 IN STRESS PERIOD    2
    20 TOTAL ITERATIONS

 MAXIMUM HEAD CHANGE FOR EACH ITERATION (1 INDICATES THE FIRST INNER ITERATION):

    HEAD CHANGE    HEAD CHANGE    HEAD CHANGE    HEAD CHANGE    HEAD CHANGE 
   LAYER,ROW,COL  LAYER,ROW,COL  LAYER,ROW,COL  LAYER,ROW,COL  LAYER,ROW,COL
 ---------------------------------------------------------------------------
  1  0.1831E-02  0  0.6016E-03  0  0.2513E-03  0  0.1125E-03  0  0.6559E-04
   ( 50,  1, 73)  ( 48,  1, 80)  ( 45,  1, 84)  ( 41,  1, 87)  ( 37,  1, 90)
  0  0.4067E-04  0 -0.2832E-04  0 -0.1984E-04  0 -0.1125E-04  0 -0.9016E-05
   ( 37,  1, 76)  (  5,  1, 72)  (  2,  1, 75)  (  5,  1, 61)  (  2,  1, 64)
  0 -0.6302E-05  0 -0.4017E-05  0 -0.2755E-05  0 -0.1858E-05  0 -0.1373E-05
   (  3,  1, 57)  (  4,  1, 50)  (  5,  1, 45)  (  6,  1, 40)  (  2,  1, 42)
  0 -0.1088E-05  0 -0.1048E-05  0 -0.1075E-05  0 -0.9323E-06  1 -0.2792E-06
   (  2,  1, 37)  ( 48,  1, 54)  ( 48,  1, 48)  ( 49,  1, 43)  ( 48,  1,  8)

 MAXIMUM RESIDUAL FOR EACH ITERATION (1 INDICATES THE FIRST INNER ITERATION):

    RESIDUAL       RESIDUAL       RESIDUAL       RESIDUAL       RESIDUAL    
   LAYER,ROW,COL  LAYER,ROW,COL  LAYER,ROW,COL  LAYER,ROW,COL  LAYER,ROW,COL
 ---------------------------------------------------------------------------
  1   12.34      0   7.268      0  -2.597      0  -1.414      0  -1.115    
   ( 50,  1, 76)  ( 50,  1, 67)  ( 50,  1, 81)  ( 50,  1, 85)  ( 50,  1, 64)
  0 -0.8816      0 -0.7075      0 -0.4420      0  0.3652      0  0.2614    
   ( 49,  1, 99)  ( 47,  1, 99)  ( 43,  1, 99)  ( 48,  1, 99)  ( 45,  1, 99)
  0 -0.1717      0 -0.1394      0 -0.1026      0  0.7825E-01  0  0.6498E-01
   ( 49,  1, 99)  ( 47,  1, 99)  ( 45,  1, 99)  ( 49,  1, 99)  ( 47,  1, 99)
  0 -0.4985E-01  0 -0.5146E-01  0 -0.4413E-01  0  0.4515E-01  1  0.1950E-01
   ( 49,  1, 99)  ( 48,  1, 99)  ( 46,  1, 99)  ( 49,  1, 99)  ( 49,  1, 99)


 FLOW MODEL IS TRANSIENT
 FLOW MODEL CONTAINS CONSTANT-HEAD CELLS


 MAXIMUM STEPSIZE DURING WHICH ANY PARTICLE CANNOT MOVE MORE THAN ONE CELL
 =  8.897    (WHEN MIN. R.F.=1)  AT K=   1, I=   1, J=  99

 MAXIMUM STEPSIZE WHICH MEETS STABILITY CRITERION OF THE ADVECTION TERM
 (FOR PURE FINITE-DIFFERENCE OPTION, MIXELM=0) 
 =  8.688    (WHEN MIN. R.F.=1)  AT K=   1, I=   1, J=  99


 TOTAL NUMBER OF POINT SOURCES/SINKS PRESENT IN THE FLOW MODEL =       100

 MAXIMUM STEPSIZE WHICH MEETS STABILITY CRITERION OF THE SINK & SOURCE TERM
 =  122.8    (WHEN MIN. R.F.=1)  AT K=   1, I=   1, J=   1

 MAXIMUM STEPSIZE WHICH MEETS STABILITY CRITERION OF THE DISPERSION TERM
 =  1.984    (WHEN MIN. R.F.=1)  AT K=   1, I=   1, J=  99
     5 CALLS TO GCG PACKAGE FOR TRANSPORT TIME STEP  26 IN FLOW TIME STEP   1 STRESS PERIOD   2
    15 TOTAL ITERATIONS
 
 SOLVING FOR HEAD 


     2 CALLS TO PCG ROUTINE FOR TIME STEP   1 IN STRESS PERIOD    2
    17 TOTAL ITERATIONS

 MAXIMUM HEAD CHANGE FOR EACH ITERATION (1 INDICATES THE FIRST INNER ITERATION):

    HEAD CHANGE    HEAD CHANGE    HEAD CHANGE    HEAD CHANGE    HEAD CHANGE 
   LAYER,ROW,COL  LAYER,ROW,COL  LAYER,ROW,COL  LAYER,ROW,COL  LAYER,ROW,COL
 ---------------------------------------------------------------------------
  1  0.1815E-02  0  0.5969E-03  0  0.2502E-03  0  0.1123E-03  0  0.6548E-04
   ( 50,  1, 73)  ( 48,  1, 80)  ( 45,  1, 84)  ( 41,  1, 87)  ( 37,  1, 90)
  0  0.4074E-04  0 -0.2759E-04  0 -0.1905E-04  0 -0.1107E-04  0 -0.8825E-05
   ( 37,  1, 76)  (  5,  1, 72)  (  1,  1, 73)  (  4,  1, 60)  (  2,  1, 64)
  0 -0.6096E-05  0 -0.3787E-05  0 -0.2522E-05  0 -0.1649E-05  0 -0.1167E-05
   (  3,  1, 56)  (  4,  1, 50)  (  5,  1, 44)  (  6,  1, 39)  (  4,  1, 36)
  0 -0.9058E-06  1 -0.3384E-06
   (  5,  1, 30)  (  6,  1,  5)

 MAXIMUM RESIDUAL FOR EACH ITERATION (1 INDICATES THE FIRST INNER ITERATION):

    RESIDUAL       RESIDUAL       RESIDUAL       RESIDUAL       RESIDUAL    
   LAYER,ROW,COL  LAYER,ROW,COL  LAYER,ROW,COL  LAYER,ROW,COL  LAYER,ROW,COL
 ---------------------------------------------------------------------------
  1   12.23      0   7.212      0  -2.592      0  -1.419      0  -1.115    
   ( 50,  1, 76)  ( 50,  1, 66)  ( 50,  1, 81)  ( 50,  1, 85)  ( 50,  1, 64)
  0 -0.8497      0 -0.6955      0 -0.4394      0  0.3576      0  0.2626    
   ( 49,  1, 99)  ( 47,  1, 99)  ( 44,  1, 99)  ( 48,  1, 99)  ( 46,  1, 99)
  0  0.1670      0 -0.1373      0 -0.9944E-01  0  0.7301E-01  0  0.5887E-01
   ( 43,  1, 99)  ( 48,  1, 99)  ( 45,  1, 99)  ( 49,  1, 99)  ( 47,  1, 99)
  0  0.4299E-01  1  0.1727E-01
   ( 44,  1, 99)  ( 44,  1, 99)


 FLOW MODEL IS TRANSIENT
 FLOW MODEL CONTAINS CONSTANT-HEAD CELLS


 MAXIMUM STEPSIZE DURING WHICH ANY PARTICLE CANNOT MOVE MORE THAN ONE CELL
 =  8.903    (WHEN MIN. R.F.=1)  AT K=   1, I=   1, J=  99

 MAXIMUM STEPSIZE WHICH MEETS STABILITY CRITERION OF THE ADVECTION TERM
 (FOR PURE FINITE-DIFFERENCE OPTION, MIXELM=0) 
 =  8.693    (WHEN MIN. R.F.=1)  AT K=   1, I=   1, J=  99


 TOTAL NUMBER OF POINT SOURCES/SINKS PRESENT IN THE FLOW MODEL =       100

 MAXIMUM STEPSIZE WHICH MEETS STABILITY CRITERION OF THE SINK & SOURCE TERM
 =  122.8    (WHEN MIN. R.F.=1)  AT K=   1, I=   1, J=   1

 MAXIMUM STEPSIZE WHICH MEETS STABILITY CRITERION OF THE DISPERSION TERM
 =  1.985    (WHEN MIN. R.F.=1)  AT K=   1, I=   1, J=  99
     5 CALLS TO GCG PACKAGE FOR TRANSPORT TIME STEP  27 IN FLOW TIME STEP   1 STRESS PERIOD   2
    15 TOTAL ITERATIONS
 
 SOLVING FOR HEAD 


     2 CALLS TO PCG ROUTINE FOR TIME STEP   1 IN STRESS PERIOD    2
    17 TOTAL ITERATIONS

 MAXIMUM HEAD CHANGE FOR EACH ITERATION (1 INDICATES THE FIRST INNER ITERATION):

    HEAD CHANGE    HEAD CHANGE    HEAD CHANGE    HEAD CHANGE    HEAD CHANGE 
   LAYER,ROW,COL  LAYER,ROW,COL  LAYER,ROW,COL  LAYER,ROW,COL  LAYER,ROW,COL
 ---------------------------------------------------------------------------
  1  0.1801E-02  0  0.5935E-03  0  0.2495E-03  0  0.1122E-03  0  0.6559E-04
   ( 50,  1, 72)  ( 48,  1, 79)  ( 45,  1, 83)  ( 41,  1, 87)  ( 38,  1, 90)
  0  0.4045E-04  0 -0.2805E-04  0 -0.1926E-04  0 -0.1148E-04  0 -0.9139E-05
   ( 38,  1, 76)  (  5,  1, 72)  (  2,  1, 75)  (  5,  1, 60)  (  2,  1, 63)
  0 -0.6260E-05  0 -0.3891E-05  0 -0.2604E-05  0 -0.1723E-05  0 -0.1247E-05
   (  3,  1, 56)  (  4,  1, 50)  (  5,  1, 44)  (  6,  1, 39)  (  1,  1, 41)
  0 -0.9839E-06  1 -0.3222E-06
   (  2,  1, 37)  (  6,  1,  5)

 MAXIMUM RESIDUAL FOR EACH ITERATION (1 INDICATES THE FIRST INNER ITERATION):

    RESIDUAL       RESIDUAL       RESIDUAL       RESIDUAL       RESIDUAL    
   LAYER,ROW,COL  LAYER,ROW,COL  LAYER,ROW,COL  LAYER,ROW,COL  LAYER,ROW,COL
 ---------------------------------------------------------------------------
  1   12.17      0   7.221      0  -2.599      0  -1.422      0  -1.113    
   ( 50,  1, 75)  ( 50,  1, 66)  ( 50,  1, 80)  ( 50,  1, 85)  ( 50,  1, 64)
  0 -0.8240      0 -0.6832      0 -0.4360      0  0.3535      0  0.2600    
   ( 49,  1, 99)  ( 47,  1, 99)  ( 44,  1, 99)  ( 48,  1, 99)  ( 46,  1, 99)
  0  0.1654      0 -0.1358      0 -0.9944E-01  0  0.7363E-01  0  0.5976E-01
   ( 42,  1, 99)  ( 48,  1, 99)  ( 45,  1, 99)  ( 49,  1, 99)  ( 47,  1, 99)
  0  0.4440E-01  1  0.1712E-01
   ( 44,  1, 99)  ( 44,  1, 99)


 FLOW MODEL IS TRANSIENT
 FLOW MODEL CONTAINS CONSTANT-HEAD CELLS


 MAXIMUM STEPSIZE DURING WHICH ANY PARTICLE CANNOT MOVE MORE THAN ONE CELL
 =  8.908    (WHEN MIN. R.F.=1)  AT K=   1, I=   1, J=  99

 MAXIMUM STEPSIZE WHICH MEETS STABILITY CRITERION OF THE ADVECTION TERM
 (FOR PURE FINITE-DIFFERENCE OPTION, MIXELM=0) 
 =  8.699    (WHEN MIN. R.F.=1)  AT K=   1, I=   1, J=  99


 TOTAL NUMBER OF POINT SOURCES/SINKS PRESENT IN THE FLOW MODEL =       100

 MAXIMUM STEPSIZE WHICH MEETS STABILITY CRITERION OF THE SINK & SOURCE TERM
 =  122.8    (WHEN MIN. R.F.=1)  AT K=   1, I=   1, J=   1

 MAXIMUM STEPSIZE WHICH MEETS STABILITY CRITERION OF THE DISPERSION TERM
 =  1.986    (WHEN MIN. R.F.=1)  AT K=   1, I=   1, J=  99
     5 CALLS TO GCG PACKAGE FOR TRANSPORT TIME STEP  28 IN FLOW TIME STEP   1 STRESS PERIOD   2
    15 TOTAL ITERATIONS
 
 SOLVING FOR HEAD 


     2 CALLS TO PCG ROUTINE FOR TIME STEP   1 IN STRESS PERIOD    2
    18 TOTAL ITERATIONS

 MAXIMUM HEAD CHANGE FOR EACH ITERATION (1 INDICATES THE FIRST INNER ITERATION):

    HEAD CHANGE    HEAD CHANGE    HEAD CHANGE    HEAD CHANGE    HEAD CHANGE 
   LAYER,ROW,COL  LAYER,ROW,COL  LAYER,ROW,COL  LAYER,ROW,COL  LAYER,ROW,COL
 ---------------------------------------------------------------------------
  1  0.1789E-02  0  0.5903E-03  0  0.2490E-03  0  0.1120E-03  0  0.6571E-04
   ( 50,  1, 72)  ( 48,  1, 79)  ( 45,  1, 83)  ( 41,  1, 86)  ( 38,  1, 90)
  0  0.4032E-04  0 -0.2759E-04  0 -0.1902E-04  0 -0.1151E-04  0 -0.9167E-05
   ( 38,  1, 76)  (  5,  1, 72)  (  2,  1, 75)  (  4,  1, 60)  (  2,  1, 64)
  0 -0.6169E-05  0 -0.3901E-05  0 -0.2664E-05  0 -0.1795E-05  0 -0.1320E-05
   (  3,  1, 56)  (  4,  1, 50)  (  5,  1, 44)  (  6,  1, 39)  (  1,  1, 41)
  0 -0.1072E-05  0 -0.9809E-06  1 -0.2945E-06
   (  2,  1, 37)  ( 48,  1, 53)  ( 28,  1,  2)

 MAXIMUM RESIDUAL FOR EACH ITERATION (1 INDICATES THE FIRST INNER ITERATION):

    RESIDUAL       RESIDUAL       RESIDUAL       RESIDUAL       RESIDUAL    
   LAYER,ROW,COL  LAYER,ROW,COL  LAYER,ROW,COL  LAYER,ROW,COL  LAYER,ROW,COL
 ---------------------------------------------------------------------------
  1   12.10      0   7.202      0  -2.604      0  -1.421      0  -1.111    
   ( 50,  1, 75)  ( 50,  1, 66)  ( 50,  1, 80)  ( 50,  1, 85)  ( 50,  1, 64)
  0 -0.8005      0 -0.6706      0 -0.4292      0  0.3485      0  0.2547    
   ( 49,  1, 99)  ( 47,  1, 99)  ( 44,  1, 99)  ( 48,  1, 99)  ( 46,  1, 99)
  0  0.1632      0 -0.1342      0 -0.9985E-01  0  0.7458E-01  0  0.6137E-01
   ( 42,  1, 99)  ( 48,  1, 99)  ( 45,  1, 99)  ( 49,  1, 99)  ( 47,  1, 99)
  0  0.4665E-01  0 -0.4830E-01  1 -0.1967E-01
   ( 44,  1, 99)  ( 48,  1, 99)  ( 48,  1, 99)


 FLOW MODEL IS TRANSIENT
 FLOW MODEL CONTAINS CONSTANT-HEAD CELLS


 MAXIMUM STEPSIZE DURING WHICH ANY PARTICLE CANNOT MOVE MORE THAN ONE CELL
 =  8.913    (WHEN MIN. R.F.=1)  AT K=   1, I=   1, J=  99

 MAXIMUM STEPSIZE WHICH MEETS STABILITY CRITERION OF THE ADVECTION TERM
 (FOR PURE FINITE-DIFFERENCE OPTION, MIXELM=0) 
 =  8.704    (WHEN MIN. R.F.=1)  AT K=   1, I=   1, J=  99


 TOTAL NUMBER OF POINT SOURCES/SINKS PRESENT IN THE FLOW MODEL =       100

 MAXIMUM STEPSIZE WHICH MEETS STABILITY CRITERION OF THE SINK & SOURCE TERM
 =  122.8    (WHEN MIN. R.F.=1)  AT K=   1, I=   1, J=   1

 MAXIMUM STEPSIZE WHICH MEETS STABILITY CRITERION OF THE DISPERSION TERM
 =  1.987    (WHEN MIN. R.F.=1)  AT K=   1, I=   1, J=  99
     5 CALLS TO GCG PACKAGE FOR TRANSPORT TIME STEP  29 IN FLOW TIME STEP   1 STRESS PERIOD   2
    15 TOTAL ITERATIONS
 
 SOLVING FOR HEAD 


     2 CALLS TO PCG ROUTINE FOR TIME STEP   1 IN STRESS PERIOD    2
    17 TOTAL ITERATIONS

 MAXIMUM HEAD CHANGE FOR EACH ITERATION (1 INDICATES THE FIRST INNER ITERATION):

    HEAD CHANGE    HEAD CHANGE    HEAD CHANGE    HEAD CHANGE    HEAD CHANGE 
   LAYER,ROW,COL  LAYER,ROW,COL  LAYER,ROW,COL  LAYER,ROW,COL  LAYER,ROW,COL
 ---------------------------------------------------------------------------
  1  0.1776E-02  0  0.5864E-03  0  0.2484E-03  0  0.1122E-03  0  0.6574E-04
   ( 50,  1, 72)  ( 48,  1, 79)  ( 45,  1, 83)  ( 41,  1, 86)  ( 38,  1, 90)
  0  0.4029E-04  0 -0.2735E-04  0 -0.1872E-04  0 -0.1128E-04  0 -0.8988E-05
   ( 37,  1, 75)  (  5,  1, 71)  (  2,  1, 74)  (  5,  1, 60)  (  2,  1, 63)
  0 -0.6070E-05  0 -0.3769E-05  0 -0.2540E-05  0 -0.1708E-05  0 -0.1205E-05
   (  3,  1, 56)  (  4,  1, 49)  (  5,  1, 43)  (  6,  1, 38)  (  1,  1, 41)
  0 -0.9588E-06  1 -0.3600E-06
   (  1,  1, 36)  (  6,  1,  5)

 MAXIMUM RESIDUAL FOR EACH ITERATION (1 INDICATES THE FIRST INNER ITERATION):

    RESIDUAL       RESIDUAL       RESIDUAL       RESIDUAL       RESIDUAL    
   LAYER,ROW,COL  LAYER,ROW,COL  LAYER,ROW,COL  LAYER,ROW,COL  LAYER,ROW,COL
 ---------------------------------------------------------------------------
  1   12.02      0   7.159      0  -2.604      0  -1.426      0  -1.107    
   ( 50,  1, 75)  ( 50,  1, 66)  ( 50,  1, 80)  ( 50,  1, 84)  ( 50,  1, 63)
  0 -0.7709      0 -0.6578      0 -0.4276      0  0.3415      0  0.2575    
   ( 49,  1, 99)  ( 47,  1, 99)  ( 44,  1, 99)  ( 48,  1, 99)  ( 46,  1, 99)
  0  0.1654      0 -0.1342      0 -0.9920E-01  0  0.7300E-01  0  0.5976E-01
   ( 43,  1, 99)  ( 48,  1, 99)  ( 45,  1, 99)  ( 49,  1, 99)  ( 47,  1, 99)
  0  0.4548E-01  1  0.1837E-01
   ( 44,  1, 99)  ( 44,  1, 99)


 FLOW MODEL IS TRANSIENT
 FLOW MODEL CONTAINS CONSTANT-HEAD CELLS


 MAXIMUM STEPSIZE DURING WHICH ANY PARTICLE CANNOT MOVE MORE THAN ONE CELL
 =  8.919    (WHEN MIN. R.F.=1)  AT K=   1, I=   1, J=  99

 MAXIMUM STEPSIZE WHICH MEETS STABILITY CRITERION OF THE ADVECTION TERM
 (FOR PURE FINITE-DIFFERENCE OPTION, MIXELM=0) 
 =  8.709    (WHEN MIN. R.F.=1)  AT K=   1, I=   1, J=  99


 TOTAL NUMBER OF POINT SOURCES/SINKS PRESENT IN THE FLOW MODEL =       100

 MAXIMUM STEPSIZE WHICH MEETS STABILITY CRITERION OF THE SINK & SOURCE TERM
 =  122.8    (WHEN MIN. R.F.=1)  AT K=   1, I=   1, J=   1

 MAXIMUM STEPSIZE WHICH MEETS STABILITY CRITERION OF THE DISPERSION TERM
 =  1.988    (WHEN MIN. R.F.=1)  AT K=   1, I=   1, J=  99
     5 CALLS TO GCG PACKAGE FOR TRANSPORT TIME STEP  30 IN FLOW TIME STEP   1 STRESS PERIOD   2
    15 TOTAL ITERATIONS
 
 SOLVING FOR HEAD 


     2 CALLS TO PCG ROUTINE FOR TIME STEP   1 IN STRESS PERIOD    2
    20 TOTAL ITERATIONS

 MAXIMUM HEAD CHANGE FOR EACH ITERATION (1 INDICATES THE FIRST INNER ITERATION):

    HEAD CHANGE    HEAD CHANGE    HEAD CHANGE    HEAD CHANGE    HEAD CHANGE 
   LAYER,ROW,COL  LAYER,ROW,COL  LAYER,ROW,COL  LAYER,ROW,COL  LAYER,ROW,COL
 ---------------------------------------------------------------------------
  1  0.1762E-02  0  0.5823E-03  0  0.2473E-03  0  0.1119E-03  0  0.6570E-04
   ( 50,  1, 72)  ( 48,  1, 79)  ( 45,  1, 83)  ( 41,  1, 86)  ( 38,  1, 90)
  0  0.4014E-04  0 -0.2764E-04  0 -0.1868E-04  0 -0.1182E-04  0 -0.9368E-05
   ( 37,  1, 75)  (  4,  1, 71)  (  2,  1, 75)  (  4,  1, 59)  (  2,  1, 63)
  0 -0.6222E-05  0 -0.3879E-05  0 -0.2663E-05  0 -0.1842E-05  0 -0.1385E-05
   (  3,  1, 56)  (  4,  1, 49)  (  6,  1, 45)  (  6,  1, 40)  (  1,  1, 41)
  0 -0.1164E-05  0 -0.1086E-05  0 -0.1111E-05  0 -0.9536E-06  1 -0.3112E-06
   (  2,  1, 37)  ( 48,  1, 53)  ( 48,  1, 47)  ( 49,  1, 42)  ( 48,  1,  7)

 MAXIMUM RESIDUAL FOR EACH ITERATION (1 INDICATES THE FIRST INNER ITERATION):

    RESIDUAL       RESIDUAL       RESIDUAL       RESIDUAL       RESIDUAL    
   LAYER,ROW,COL  LAYER,ROW,COL  LAYER,ROW,COL  LAYER,ROW,COL  LAYER,ROW,COL
 ---------------------------------------------------------------------------
  1   11.92      0   7.099      0  -2.599      0  -1.431      0  -1.107    
   ( 50,  1, 75)  ( 50,  1, 66)  ( 50,  1, 80)  ( 50,  1, 84)  ( 50,  1, 63)
  0 -0.7462      0 -0.6460      0 -0.4242      0  0.3377      0  0.2547    
   ( 49,  1, 99)  ( 47,  1, 99)  ( 44,  1, 99)  ( 48,  1, 99)  ( 46,  1, 99)
  0  0.1641      0 -0.1337      0 -0.1006      0  0.7545E-01  0  0.6299E-01
   ( 43,  1, 99)  ( 48,  1, 99)  ( 45,  1, 99)  ( 49,  1, 99)  ( 47,  1, 99)
  0 -0.4950E-01  0 -0.5199E-01  0 -0.4529E-01  0  0.4427E-01  1  0.1896E-01
   ( 49,  1, 99)  ( 48,  1, 99)  ( 46,  1, 99)  ( 49,  1, 99)  ( 49,  1, 99)


 FLOW MODEL IS TRANSIENT
 FLOW MODEL CONTAINS CONSTANT-HEAD CELLS


 MAXIMUM STEPSIZE DURING WHICH ANY PARTICLE CANNOT MOVE MORE THAN ONE CELL
 =  8.924    (WHEN MIN. R.F.=1)  AT K=   1, I=   1, J=  99

 MAXIMUM STEPSIZE WHICH MEETS STABILITY CRITERION OF THE ADVECTION TERM
 (FOR PURE FINITE-DIFFERENCE OPTION, MIXELM=0) 
 =  8.714    (WHEN MIN. R.F.=1)  AT K=   1, I=   1, J=  99


 TOTAL NUMBER OF POINT SOURCES/SINKS PRESENT IN THE FLOW MODEL =       100

 MAXIMUM STEPSIZE WHICH MEETS STABILITY CRITERION OF THE SINK & SOURCE TERM
 =  122.8    (WHEN MIN. R.F.=1)  AT K=   1, I=   1, J=   1

 MAXIMUM STEPSIZE WHICH MEETS STABILITY CRITERION OF THE DISPERSION TERM
 =  1.990    (WHEN MIN. R.F.=1)  AT K=   1, I=   1, J=  99
     5 CALLS TO GCG PACKAGE FOR TRANSPORT TIME STEP  31 IN FLOW TIME STEP   1 STRESS PERIOD   2
    15 TOTAL ITERATIONS
 
 SOLVING FOR HEAD 


     2 CALLS TO PCG ROUTINE FOR TIME STEP   1 IN STRESS PERIOD    2
    21 TOTAL ITERATIONS

 MAXIMUM HEAD CHANGE FOR EACH ITERATION (1 INDICATES THE FIRST INNER ITERATION):

    HEAD CHANGE    HEAD CHANGE    HEAD CHANGE    HEAD CHANGE    HEAD CHANGE 
   LAYER,ROW,COL  LAYER,ROW,COL  LAYER,ROW,COL  LAYER,ROW,COL  LAYER,ROW,COL
 ---------------------------------------------------------------------------
  1  0.1746E-02  0  0.5779E-03  0  0.2465E-03  0  0.1120E-03  0  0.6577E-04
   ( 50,  1, 72)  ( 48,  1, 79)  ( 45,  1, 83)  ( 41,  1, 86)  ( 38,  1, 89)
  0  0.4007E-04  0 -0.2701E-04  0 -0.1841E-04  0 -0.1145E-04  0 -0.9078E-05
   ( 37,  1, 75)  (  4,  1, 70)  (  2,  1, 74)  (  4,  1, 59)  (  2,  1, 63)
  0 -0.6122E-05  0 -0.3857E-05  0 -0.2677E-05  0 -0.1875E-05  0 -0.1403E-05
   (  3,  1, 55)  (  4,  1, 49)  (  5,  1, 43)  (  6,  1, 38)  (  5,  1, 34)
  0 -0.1169E-05  0 -0.1130E-05  0 -0.1165E-05  0 -0.1020E-05  0 -0.8895E-06
   (  5,  1, 26)  ( 48,  1, 53)  ( 48,  1, 47)  ( 49,  1, 43)  ( 49,  1, 28)
  1 -0.2570E-06
   ( 38,  1,  7)

 MAXIMUM RESIDUAL FOR EACH ITERATION (1 INDICATES THE FIRST INNER ITERATION):

    RESIDUAL       RESIDUAL       RESIDUAL       RESIDUAL       RESIDUAL    
   LAYER,ROW,COL  LAYER,ROW,COL  LAYER,ROW,COL  LAYER,ROW,COL  LAYER,ROW,COL
 ---------------------------------------------------------------------------
  1   11.85      0   7.087      0  -2.598      0  -1.432      0  -1.106    
   ( 50,  1, 74)  ( 50,  1, 65)  ( 50,  1, 79)  ( 50,  1, 84)  ( 50,  1, 63)
  0 -0.7218      0 -0.6329      0 -0.4184      0  0.3315      0  0.2530    
   ( 49,  1, 99)  ( 47,  1, 99)  ( 44,  1, 99)  ( 48,  1, 99)  ( 46,  1, 99)
  0  0.1648      0 -0.1339      0 -0.1018      0  0.7677E-01  0  0.6535E-01
   ( 43,  1, 99)  ( 48,  1, 99)  ( 45,  1, 99)  ( 49,  1, 99)  ( 47,  1, 99)
  0  0.5257E-01  0 -0.5488E-01  0 -0.4915E-01  0  0.4587E-01  0  0.3696E-01
   ( 44,  1, 99)  ( 48,  1, 99)  ( 46,  1, 99)  ( 49,  1, 99)  ( 48,  1, 99)
  1  0.1483E-01
   ( 48,  1, 99)


 FLOW MODEL IS TRANSIENT
 FLOW MODEL CONTAINS CONSTANT-HEAD CELLS


 MAXIMUM STEPSIZE DURING WHICH ANY PARTICLE CANNOT MOVE MORE THAN ONE CELL
 =  8.930    (WHEN MIN. R.F.=1)  AT K=   1, I=   1, J=  99

 MAXIMUM STEPSIZE WHICH MEETS STABILITY CRITERION OF THE ADVECTION TERM
 (FOR PURE FINITE-DIFFERENCE OPTION, MIXELM=0) 
 =  8.719    (WHEN MIN. R.F.=1)  AT K=   1, I=   1, J=  99


 TOTAL NUMBER OF POINT SOURCES/SINKS PRESENT IN THE FLOW MODEL =       100

 MAXIMUM STEPSIZE WHICH MEETS STABILITY CRITERION OF THE SINK & SOURCE TERM
 =  122.8    (WHEN MIN. R.F.=1)  AT K=   1, I=   1, J=   1

 MAXIMUM STEPSIZE WHICH MEETS STABILITY CRITERION OF THE DISPERSION TERM
 =  1.991    (WHEN MIN. R.F.=1)  AT K=   1, I=   1, J=  99
     5 CALLS TO GCG PACKAGE FOR TRANSPORT TIME STEP  32 IN FLOW TIME STEP   1 STRESS PERIOD   2
    15 TOTAL ITERATIONS
 
 SOLVING FOR HEAD 


     2 CALLS TO PCG ROUTINE FOR TIME STEP   1 IN STRESS PERIOD    2
    20 TOTAL ITERATIONS

 MAXIMUM HEAD CHANGE FOR EACH ITERATION (1 INDICATES THE FIRST INNER ITERATION):

    HEAD CHANGE    HEAD CHANGE    HEAD CHANGE    HEAD CHANGE    HEAD CHANGE 
   LAYER,ROW,COL  LAYER,ROW,COL  LAYER,ROW,COL  LAYER,ROW,COL  LAYER,ROW,COL
 ---------------------------------------------------------------------------
  1  0.1735E-02  0  0.5747E-03  0  0.2457E-03  0  0.1120E-03  0  0.6605E-04
   ( 50,  1, 71)  ( 48,  1, 78)  ( 45,  1, 82)  ( 41,  1, 86)  ( 38,  1, 89)
  0  0.3982E-04  0 -0.2699E-04  0 -0.1816E-04  0 -0.1170E-04  0 -0.9271E-05
   ( 37,  1, 75)  (  4,  1, 71)  (  2,  1, 75)  (  4,  1, 59)  (  2,  1, 63)
  0 -0.6091E-05  0 -0.3815E-05  0 -0.2637E-05  0 -0.1849E-05  0 -0.1384E-05
   (  3,  1, 55)  (  4,  1, 49)  (  6,  1, 45)  (  6,  1, 39)  (  5,  1, 33)
  0 -0.1169E-05  0 -0.1058E-05  0 -0.1091E-05  0 -0.9591E-06  1 -0.3090E-06
   (  2,  1, 36)  ( 48,  1, 53)  ( 48,  1, 47)  ( 49,  1, 43)  ( 48,  1,  7)

 MAXIMUM RESIDUAL FOR EACH ITERATION (1 INDICATES THE FIRST INNER ITERATION):

    RESIDUAL       RESIDUAL       RESIDUAL       RESIDUAL       RESIDUAL    
   LAYER,ROW,COL  LAYER,ROW,COL  LAYER,ROW,COL  LAYER,ROW,COL  LAYER,ROW,COL
 ---------------------------------------------------------------------------
  1   11.79      0   7.078      0  -2.601      0  -1.433      0  -1.103    
   ( 50,  1, 74)  ( 50,  1, 65)  ( 50,  1, 79)  ( 50,  1, 84)  ( 50,  1, 63)
  0 -0.6988      0 -0.6216      0 -0.4125      0  0.3257      0  0.2487    
   ( 49,  1, 99)  ( 47,  1, 99)  ( 44,  1, 99)  ( 48,  1, 99)  ( 46,  1, 99)
  0  0.1614      0 -0.1304      0 -0.9908E-01  0  0.7398E-01  0  0.6212E-01
   ( 43,  1, 99)  ( 48,  1, 99)  ( 45,  1, 99)  ( 49,  1, 99)  ( 47,  1, 99)
  0  0.4965E-01  0 -0.5165E-01  0 -0.4630E-01  0  0.4339E-01  1  0.1835E-01
   ( 44,  1, 99)  ( 48,  1, 99)  ( 46,  1, 99)  ( 49,  1, 99)  ( 49,  1, 99)


 FLOW MODEL IS TRANSIENT
 FLOW MODEL CONTAINS CONSTANT-HEAD CELLS


 MAXIMUM STEPSIZE DURING WHICH ANY PARTICLE CANNOT MOVE MORE THAN ONE CELL
 =  8.935    (WHEN MIN. R.F.=1)  AT K=   1, I=   1, J=  99

 MAXIMUM STEPSIZE WHICH MEETS STABILITY CRITERION OF THE ADVECTION TERM
 (FOR PURE FINITE-DIFFERENCE OPTION, MIXELM=0) 
 =  8.724    (WHEN MIN. R.F.=1)  AT K=   1, I=   1, J=  99


 TOTAL NUMBER OF POINT SOURCES/SINKS PRESENT IN THE FLOW MODEL =       100

 MAXIMUM STEPSIZE WHICH MEETS STABILITY CRITERION OF THE SINK & SOURCE TERM
 =  122.8    (WHEN MIN. R.F.=1)  AT K=   1, I=   1, J=   1

 MAXIMUM STEPSIZE WHICH MEETS STABILITY CRITERION OF THE DISPERSION TERM
 =  1.992    (WHEN MIN. R.F.=1)  AT K=   1, I=   1, J=  99
     5 CALLS TO GCG PACKAGE FOR TRANSPORT TIME STEP  33 IN FLOW TIME STEP   1 STRESS PERIOD   2
    15 TOTAL ITERATIONS
 
 SOLVING FOR HEAD 


     2 CALLS TO PCG ROUTINE FOR TIME STEP   1 IN STRESS PERIOD    2
    18 TOTAL ITERATIONS

 MAXIMUM HEAD CHANGE FOR EACH ITERATION (1 INDICATES THE FIRST INNER ITERATION):

    HEAD CHANGE    HEAD CHANGE    HEAD CHANGE    HEAD CHANGE    HEAD CHANGE 
   LAYER,ROW,COL  LAYER,ROW,COL  LAYER,ROW,COL  LAYER,ROW,COL  LAYER,ROW,COL
 ---------------------------------------------------------------------------
  1  0.1723E-02  0  0.5713E-03  0  0.2449E-03  0  0.1116E-03  0  0.6593E-04
   ( 50,  1, 71)  ( 48,  1, 78)  ( 45,  1, 82)  ( 41,  1, 86)  ( 38,  1, 89)
  0  0.3979E-04  0 -0.2637E-04  0 -0.1782E-04  0 -0.1134E-04  0 -0.8921E-05
   ( 38,  1, 75)  (  4,  1, 70)  (  2,  1, 74)  (  4,  1, 59)  (  2,  1, 63)
  0 -0.5909E-05  0 -0.3685E-05  0 -0.2526E-05  0 -0.1766E-05  0 -0.1313E-05
   (  3,  1, 55)  (  4,  1, 48)  (  6,  1, 44)  (  3,  1, 40)  (  4,  1, 33)
  0 -0.1073E-05  0 -0.9717E-06  1 -0.3175E-06
   (  1,  1, 36)  ( 48,  1, 53)  (  3,  1, 71)

 MAXIMUM RESIDUAL FOR EACH ITERATION (1 INDICATES THE FIRST INNER ITERATION):

    RESIDUAL       RESIDUAL       RESIDUAL       RESIDUAL       RESIDUAL    
   LAYER,ROW,COL  LAYER,ROW,COL  LAYER,ROW,COL  LAYER,ROW,COL  LAYER,ROW,COL
 ---------------------------------------------------------------------------
  1   11.72      0   7.054      0  -2.605      0  -1.436      0  -1.100    
   ( 50,  1, 74)  ( 50,  1, 65)  ( 50,  1, 79)  ( 50,  1, 84)  ( 50,  1, 63)
  0 -0.6737      0 -0.6070      0 -0.4083      0  0.3193      0  0.2469    
   ( 49,  1, 99)  ( 47,  1, 99)  ( 44,  1, 99)  ( 48,  1, 99)  ( 46,  1, 99)
  0  0.1618      0 -0.1291      0 -0.9786E-01  0  0.7191E-01  0  0.5993E-01
   ( 43,  1, 99)  ( 48,  1, 99)  ( 45,  1, 99)  ( 49,  1, 99)  ( 47,  1, 99)
  0  0.4768E-01  0 -0.4820E-01  1 -0.2031E-01
   ( 44,  1, 99)  ( 48,  1, 99)  ( 48,  1, 99)


 FLOW MODEL IS TRANSIENT
 FLOW MODEL CONTAINS CONSTANT-HEAD CELLS


 MAXIMUM STEPSIZE DURING WHICH ANY PARTICLE CANNOT MOVE MORE THAN ONE CELL
 =  8.940    (WHEN MIN. R.F.=1)  AT K=   1, I=   1, J=  99

 MAXIMUM STEPSIZE WHICH MEETS STABILITY CRITERION OF THE ADVECTION TERM
 (FOR PURE FINITE-DIFFERENCE OPTION, MIXELM=0) 
 =  8.730    (WHEN MIN. R.F.=1)  AT K=   1, I=   1, J=  99


 TOTAL NUMBER OF POINT SOURCES/SINKS PRESENT IN THE FLOW MODEL =       100

 MAXIMUM STEPSIZE WHICH MEETS STABILITY CRITERION OF THE SINK & SOURCE TERM
 =  122.8    (WHEN MIN. R.F.=1)  AT K=   1, I=   1, J=   1

 MAXIMUM STEPSIZE WHICH MEETS STABILITY CRITERION OF THE DISPERSION TERM
 =  1.993    (WHEN MIN. R.F.=1)  AT K=   1, I=   1, J=  99
     5 CALLS TO GCG PACKAGE FOR TRANSPORT TIME STEP  34 IN FLOW TIME STEP   1 STRESS PERIOD   2
    15 TOTAL ITERATIONS
 
 SOLVING FOR HEAD 


     2 CALLS TO PCG ROUTINE FOR TIME STEP   1 IN STRESS PERIOD    2
    21 TOTAL ITERATIONS

 MAXIMUM HEAD CHANGE FOR EACH ITERATION (1 INDICATES THE FIRST INNER ITERATION):

    HEAD CHANGE    HEAD CHANGE    HEAD CHANGE    HEAD CHANGE    HEAD CHANGE 
   LAYER,ROW,COL  LAYER,ROW,COL  LAYER,ROW,COL  LAYER,ROW,COL  LAYER,ROW,COL
 ---------------------------------------------------------------------------
  1  0.1711E-02  0  0.5679E-03  0  0.2444E-03  0  0.1117E-03  0  0.6603E-04
   ( 50,  1, 71)  ( 48,  1, 78)  ( 45,  1, 82)  ( 41,  1, 85)  ( 38,  1, 89)
  0  0.3971E-04  0 -0.2582E-04  0 -0.1766E-04  0 -0.1115E-04  0 -0.8783E-05
   ( 37,  1, 74)  (  4,  1, 70)  (  1,  1, 72)  (  4,  1, 59)  (  2,  1, 63)
  0 -0.5859E-05  0 -0.3751E-05  0 -0.2626E-05  0 -0.1881E-05  0 -0.1446E-05
   (  3,  1, 55)  (  4,  1, 48)  (  6,  1, 44)  (  3,  1, 40)  (  4,  1, 33)
  0 -0.1226E-05  0 -0.1144E-05  0 -0.1180E-05  0 -0.1020E-05  0 -0.8882E-06
   (  5,  1, 27)  ( 48,  1, 52)  ( 48,  1, 47)  ( 49,  1, 42)  ( 49,  1, 27)
  1 -0.2599E-06
   ( 38,  1,  7)

 MAXIMUM RESIDUAL FOR EACH ITERATION (1 INDICATES THE FIRST INNER ITERATION):

    RESIDUAL       RESIDUAL       RESIDUAL       RESIDUAL       RESIDUAL    
   LAYER,ROW,COL  LAYER,ROW,COL  LAYER,ROW,COL  LAYER,ROW,COL  LAYER,ROW,COL
 ---------------------------------------------------------------------------
  1   11.64      0   7.004      0  -2.600      0  -1.434      0  -1.098    
   ( 50,  1, 74)  ( 50,  1, 65)  ( 50,  1, 79)  ( 50,  1, 84)  ( 50,  1, 62)
  0 -0.6539      0 -0.5968      0 -0.4023      0  0.3155      0  0.2443    
   ( 49,  1, 99)  ( 47,  1, 99)  ( 44,  1, 99)  ( 48,  1, 99)  ( 46,  1, 99)
  0  0.1610      0 -0.1297      0 -0.1001      0  0.7509E-01  0  0.6401E-01
   ( 43,  1, 99)  ( 48,  1, 99)  ( 45,  1, 99)  ( 49,  1, 99)  ( 47,  1, 99)
  0  0.5254E-01  0 -0.5459E-01  0 -0.4941E-01  0  0.4487E-01  0  0.3607E-01
   ( 44,  1, 99)  ( 48,  1, 99)  ( 46,  1, 99)  ( 49,  1, 99)  ( 48,  1, 99)
  1  0.1456E-01
   ( 48,  1, 99)


 FLOW MODEL IS TRANSIENT
 FLOW MODEL CONTAINS CONSTANT-HEAD CELLS


 MAXIMUM STEPSIZE DURING WHICH ANY PARTICLE CANNOT MOVE MORE THAN ONE CELL
 =  8.946    (WHEN MIN. R.F.=1)  AT K=   1, I=   1, J=  99

 MAXIMUM STEPSIZE WHICH MEETS STABILITY CRITERION OF THE ADVECTION TERM
 (FOR PURE FINITE-DIFFERENCE OPTION, MIXELM=0) 
 =  8.735    (WHEN MIN. R.F.=1)  AT K=   1, I=   1, J=  99


 TOTAL NUMBER OF POINT SOURCES/SINKS PRESENT IN THE FLOW MODEL =       100

 MAXIMUM STEPSIZE WHICH MEETS STABILITY CRITERION OF THE SINK & SOURCE TERM
 =  122.8    (WHEN MIN. R.F.=1)  AT K=   1, I=   1, J=   1

 MAXIMUM STEPSIZE WHICH MEETS STABILITY CRITERION OF THE DISPERSION TERM
 =  1.994    (WHEN MIN. R.F.=1)  AT K=   1, I=   1, J=  99
     5 CALLS TO GCG PACKAGE FOR TRANSPORT TIME STEP  35 IN FLOW TIME STEP   1 STRESS PERIOD   2
    15 TOTAL ITERATIONS
 
 SOLVING FOR HEAD 


     2 CALLS TO PCG ROUTINE FOR TIME STEP   1 IN STRESS PERIOD    2
    20 TOTAL ITERATIONS

 MAXIMUM HEAD CHANGE FOR EACH ITERATION (1 INDICATES THE FIRST INNER ITERATION):

    HEAD CHANGE    HEAD CHANGE    HEAD CHANGE    HEAD CHANGE    HEAD CHANGE 
   LAYER,ROW,COL  LAYER,ROW,COL  LAYER,ROW,COL  LAYER,ROW,COL  LAYER,ROW,COL
 ---------------------------------------------------------------------------
  1  0.1698E-02  0  0.5641E-03  0  0.2437E-03  0  0.1118E-03  0  0.6609E-04
   ( 50,  1, 71)  ( 48,  1, 78)  ( 45,  1, 82)  ( 41,  1, 85)  ( 38,  1, 89)
  0  0.3949E-04  0 -0.2655E-04  0 -0.1757E-04  0 -0.1179E-04  0 -0.9213E-05
   ( 37,  1, 74)  (  4,  1, 71)  (  2,  1, 75)  (  4,  1, 58)  (  2,  1, 63)
  0 -0.5964E-05  0 -0.3698E-05  0 -0.2576E-05  0 -0.1824E-05  0 -0.1379E-05
   (  3,  1, 55)  (  4,  1, 48)  (  6,  1, 44)  (  5,  1, 38)  (  5,  1, 32)
  0 -0.1162E-05  0 -0.1022E-05  0 -0.1073E-05  0 -0.9499E-06  1 -0.3116E-06
   (  2,  1, 36)  ( 48,  1, 52)  ( 48,  1, 47)  ( 49,  1, 43)  ( 48,  1,  7)

 MAXIMUM RESIDUAL FOR EACH ITERATION (1 INDICATES THE FIRST INNER ITERATION):

    RESIDUAL       RESIDUAL       RESIDUAL       RESIDUAL       RESIDUAL    
   LAYER,ROW,COL  LAYER,ROW,COL  LAYER,ROW,COL  LAYER,ROW,COL  LAYER,ROW,COL
 ---------------------------------------------------------------------------
  1   11.55      0   6.941      0  -2.592      0  -1.437      0  -1.097    
   ( 50,  1, 73)  ( 50,  1, 64)  ( 50,  1, 79)  ( 50,  1, 83)  ( 50,  1, 62)
  0 -0.6531      0 -0.5835      0 -0.3983      0  0.3090      0  0.2419    
   ( 49,  1, 74)  ( 47,  1, 99)  ( 44,  1, 99)  ( 48,  1, 99)  ( 46,  1, 99)
  0  0.1587      0 -0.1261      0 -0.9683E-01  0  0.7162E-01  0  0.6013E-01
   ( 43,  1, 99)  ( 48,  1, 99)  ( 45,  1, 99)  ( 49,  1, 99)  ( 47,  1, 99)
  0  0.4889E-01  0 -0.5000E-01  0 -0.4586E-01  0  0.4147E-01  1  0.1717E-01
   ( 44,  1, 99)  ( 48,  1, 99)  ( 46,  1, 99)  ( 49,  1, 99)  ( 49,  1, 99)


 FLOW MODEL IS TRANSIENT
 FLOW MODEL CONTAINS CONSTANT-HEAD CELLS


 MAXIMUM STEPSIZE DURING WHICH ANY PARTICLE CANNOT MOVE MORE THAN ONE CELL
 =  8.951    (WHEN MIN. R.F.=1)  AT K=   1, I=   1, J=  99

 MAXIMUM STEPSIZE WHICH MEETS STABILITY CRITERION OF THE ADVECTION TERM
 (FOR PURE FINITE-DIFFERENCE OPTION, MIXELM=0) 
 =  8.740    (WHEN MIN. R.F.=1)  AT K=   1, I=   1, J=  99


 TOTAL NUMBER OF POINT SOURCES/SINKS PRESENT IN THE FLOW MODEL =       100

 MAXIMUM STEPSIZE WHICH MEETS STABILITY CRITERION OF THE SINK & SOURCE TERM
 =  122.8    (WHEN MIN. R.F.=1)  AT K=   1, I=   1, J=   1

 MAXIMUM STEPSIZE WHICH MEETS STABILITY CRITERION OF THE DISPERSION TERM
 =  1.996    (WHEN MIN. R.F.=1)  AT K=   1, I=   1, J=  99
     5 CALLS TO GCG PACKAGE FOR TRANSPORT TIME STEP  36 IN FLOW TIME STEP   1 STRESS PERIOD   2
    15 TOTAL ITERATIONS
 
 SOLVING FOR HEAD 


     2 CALLS TO PCG ROUTINE FOR TIME STEP   1 IN STRESS PERIOD    2
    17 TOTAL ITERATIONS

 MAXIMUM HEAD CHANGE FOR EACH ITERATION (1 INDICATES THE FIRST INNER ITERATION):

    HEAD CHANGE    HEAD CHANGE    HEAD CHANGE    HEAD CHANGE    HEAD CHANGE 
   LAYER,ROW,COL  LAYER,ROW,COL  LAYER,ROW,COL  LAYER,ROW,COL  LAYER,ROW,COL
 ---------------------------------------------------------------------------
  1  0.1684E-02  0  0.5599E-03  0  0.2425E-03  0  0.1115E-03  0  0.6591E-04
   ( 50,  1, 71)  ( 48,  1, 78)  ( 45,  1, 82)  ( 41,  1, 85)  ( 38,  1, 88)
  0  0.3951E-04  0 -0.2576E-04  0 -0.1711E-04  0 -0.1141E-04  0 -0.8863E-05
   ( 37,  1, 74)  (  4,  1, 71)  (  2,  1, 74)  (  4,  1, 58)  (  2,  1, 62)
  0 -0.5703E-05  0 -0.3540E-05  0 -0.2416E-05  0 -0.1699E-05  0 -0.1238E-05
   (  3,  1, 54)  (  4,  1, 48)  (  6,  1, 44)  (  3,  1, 39)  (  5,  1, 33)
  0 -0.9977E-06  1 -0.3460E-06
   (  2,  1, 36)  (  2,  1, 77)

 MAXIMUM RESIDUAL FOR EACH ITERATION (1 INDICATES THE FIRST INNER ITERATION):

    RESIDUAL       RESIDUAL       RESIDUAL       RESIDUAL       RESIDUAL    
   LAYER,ROW,COL  LAYER,ROW,COL  LAYER,ROW,COL  LAYER,ROW,COL  LAYER,ROW,COL
 ---------------------------------------------------------------------------
  1   11.50      0   6.951      0  -2.594      0  -1.441      0  -1.095    
   ( 50,  1, 73)  ( 50,  1, 64)  ( 50,  1, 78)  ( 50,  1, 83)  ( 50,  1, 62)
  0 -0.6509      0 -0.5704      0 -0.3925      0  0.3027      0  0.2384    
   ( 49,  1, 74)  ( 47,  1, 99)  ( 44,  1, 99)  ( 48,  1, 99)  ( 46,  1, 99)
  0  0.1576      0 -0.1237      0 -0.9404E-01  0  0.6777E-01  0  0.5561E-01
   ( 43,  1, 99)  ( 48,  1, 99)  ( 45,  1, 99)  ( 49,  1, 99)  ( 47,  1, 99)
  0  0.4414E-01  1  0.1770E-01
   ( 44,  1, 99)  ( 44,  1, 99)


 FLOW MODEL IS TRANSIENT
 FLOW MODEL CONTAINS CONSTANT-HEAD CELLS


 MAXIMUM STEPSIZE DURING WHICH ANY PARTICLE CANNOT MOVE MORE THAN ONE CELL
 =  8.956    (WHEN MIN. R.F.=1)  AT K=   1, I=   1, J=  99

 MAXIMUM STEPSIZE WHICH MEETS STABILITY CRITERION OF THE ADVECTION TERM
 (FOR PURE FINITE-DIFFERENCE OPTION, MIXELM=0) 
 =  8.745    (WHEN MIN. R.F.=1)  AT K=   1, I=   1, J=  99


 TOTAL NUMBER OF POINT SOURCES/SINKS PRESENT IN THE FLOW MODEL =       100

 MAXIMUM STEPSIZE WHICH MEETS STABILITY CRITERION OF THE SINK & SOURCE TERM
 =  122.8    (WHEN MIN. R.F.=1)  AT K=   1, I=   1, J=   1

 MAXIMUM STEPSIZE WHICH MEETS STABILITY CRITERION OF THE DISPERSION TERM
 =  1.997    (WHEN MIN. R.F.=1)  AT K=   1, I=   1, J=  99
     5 CALLS TO GCG PACKAGE FOR TRANSPORT TIME STEP  37 IN FLOW TIME STEP   1 STRESS PERIOD   2
    15 TOTAL ITERATIONS
 
 SOLVING FOR HEAD 


     2 CALLS TO PCG ROUTINE FOR TIME STEP   1 IN STRESS PERIOD    2
    21 TOTAL ITERATIONS

 MAXIMUM HEAD CHANGE FOR EACH ITERATION (1 INDICATES THE FIRST INNER ITERATION):

    HEAD CHANGE    HEAD CHANGE    HEAD CHANGE    HEAD CHANGE    HEAD CHANGE 
   LAYER,ROW,COL  LAYER,ROW,COL  LAYER,ROW,COL  LAYER,ROW,COL  LAYER,ROW,COL
 ---------------------------------------------------------------------------
  1  0.1674E-02  0  0.5564E-03  0  0.2415E-03  0  0.1114E-03  0  0.6612E-04
   ( 50,  1, 70)  ( 48,  1, 77)  ( 45,  1, 82)  ( 41,  1, 85)  ( 38,  1, 88)
  0 -0.4002E-04  0 -0.2641E-04  0 -0.1737E-04  0 -0.1198E-04  0 -0.9299E-05
   (  4,  1, 79)  (  4,  1, 71)  (  6,  1, 69)  (  4,  1, 58)  (  2,  1, 62)
  0 -0.5870E-05  0 -0.3689E-05  0 -0.2612E-05  0 -0.1913E-05  0 -0.1484E-05
   (  3,  1, 55)  (  4,  1, 48)  (  6,  1, 44)  (  4,  1, 38)  (  5,  1, 33)
  0 -0.1277E-05  0 -0.1132E-05  0 -0.1190E-05  0 -0.1027E-05  0 -0.9018E-06
   (  2,  1, 36)  ( 48,  1, 52)  ( 48,  1, 47)  ( 49,  1, 42)  ( 44,  1,  1)
  1 -0.2643E-06
   ( 39,  1,  7)

 MAXIMUM RESIDUAL FOR EACH ITERATION (1 INDICATES THE FIRST INNER ITERATION):

    RESIDUAL       RESIDUAL       RESIDUAL       RESIDUAL       RESIDUAL    
   LAYER,ROW,COL  LAYER,ROW,COL  LAYER,ROW,COL  LAYER,ROW,COL  LAYER,ROW,COL
 ---------------------------------------------------------------------------
  1   11.44      0   6.938      0  -2.594      0  -1.445      0  -1.092    
   ( 50,  1, 73)  ( 50,  1, 64)  ( 50,  1, 78)  ( 50,  1, 83)  ( 50,  1, 62)
  0 -0.6500      0 -0.5580      0 -0.3890      0  0.2995      0  0.2380    
   ( 49,  1, 74)  ( 47,  1, 99)  ( 44,  1, 99)  ( 48,  1, 99)  ( 46,  1, 99)
  0  0.1575      0 -0.1248      0 -0.9737E-01  0  0.7290E-01  0  0.6222E-01
   ( 43,  1, 99)  ( 48,  1, 99)  ( 45,  1, 99)  ( 49,  1, 99)  ( 47,  1, 99)
  0  0.5202E-01  0 -0.5376E-01  0 -0.4936E-01  0  0.4366E-01  0  0.3484E-01
   ( 44,  1, 99)  ( 48,  1, 99)  ( 46,  1, 99)  ( 49,  1, 99)  ( 48,  1, 99)
  1  0.1392E-01
   ( 47,  1, 99)


 FLOW MODEL IS TRANSIENT
 FLOW MODEL CONTAINS CONSTANT-HEAD CELLS


 MAXIMUM STEPSIZE DURING WHICH ANY PARTICLE CANNOT MOVE MORE THAN ONE CELL
 =  8.962    (WHEN MIN. R.F.=1)  AT K=   1, I=   1, J=  99

 MAXIMUM STEPSIZE WHICH MEETS STABILITY CRITERION OF THE ADVECTION TERM
 (FOR PURE FINITE-DIFFERENCE OPTION, MIXELM=0) 
 =  8.750    (WHEN MIN. R.F.=1)  AT K=   1, I=   1, J=  99


 TOTAL NUMBER OF POINT SOURCES/SINKS PRESENT IN THE FLOW MODEL =       100

 MAXIMUM STEPSIZE WHICH MEETS STABILITY CRITERION OF THE SINK & SOURCE TERM
 =  122.8    (WHEN MIN. R.F.=1)  AT K=   1, I=   1, J=   1

 MAXIMUM STEPSIZE WHICH MEETS STABILITY CRITERION OF THE DISPERSION TERM
 =  1.998    (WHEN MIN. R.F.=1)  AT K=   1, I=   1, J=  99
     5 CALLS TO GCG PACKAGE FOR TRANSPORT TIME STEP  38 IN FLOW TIME STEP   1 STRESS PERIOD   2
    15 TOTAL ITERATIONS
 
 SOLVING FOR HEAD 


     2 CALLS TO PCG ROUTINE FOR TIME STEP   1 IN STRESS PERIOD    2
    18 TOTAL ITERATIONS

 MAXIMUM HEAD CHANGE FOR EACH ITERATION (1 INDICATES THE FIRST INNER ITERATION):

    HEAD CHANGE    HEAD CHANGE    HEAD CHANGE    HEAD CHANGE    HEAD CHANGE 
   LAYER,ROW,COL  LAYER,ROW,COL  LAYER,ROW,COL  LAYER,ROW,COL  LAYER,ROW,COL
 ---------------------------------------------------------------------------
  1  0.1664E-02  0  0.5536E-03  0  0.2410E-03  0  0.1114E-03  0  0.6638E-04
   ( 50,  1, 70)  ( 48,  1, 77)  ( 45,  1, 81)  ( 41,  1, 85)  ( 38,  1, 88)
  0 -0.3948E-04  0 -0.2574E-04  0 -0.1717E-04  0 -0.1168E-04  0 -0.9073E-05
   (  4,  1, 79)  (  4,  1, 71)  (  6,  1, 69)  (  4,  1, 58)  (  2,  1, 62)
  0 -0.5659E-05  0 -0.3546E-05  0 -0.2475E-05  0 -0.1733E-05  0 -0.1285E-05
   (  3,  1, 55)  (  4,  1, 48)  (  6,  1, 44)  (  5,  1, 38)  (  5,  1, 32)
  0 -0.1071E-05  0 -0.9064E-06  1 -0.2758E-06
   (  2,  1, 35)  (  2,  1, 29)  ( 30,  1,  3)

 MAXIMUM RESIDUAL FOR EACH ITERATION (1 INDICATES THE FIRST INNER ITERATION):

    RESIDUAL       RESIDUAL       RESIDUAL       RESIDUAL       RESIDUAL    
   LAYER,ROW,COL  LAYER,ROW,COL  LAYER,ROW,COL  LAYER,ROW,COL  LAYER,ROW,COL
 ---------------------------------------------------------------------------
  1   11.37      0   6.906      0  -2.594      0  -1.440      0  -1.087    
   ( 50,  1, 73)  ( 50,  1, 64)  ( 50,  1, 78)  ( 50,  1, 83)  ( 50,  1, 62)
  0 -0.6468      0 -0.5472      0 -0.3814      0  0.2934      0  0.2324    
   ( 49,  1, 74)  ( 47,  1, 99)  ( 44,  1, 99)  ( 48,  1, 99)  ( 46,  1, 99)
  0  0.1533      0 -0.1202      0 -0.9251E-01  0  0.6709E-01  0  0.5539E-01
   ( 43,  1, 99)  ( 48,  1, 99)  ( 45,  1, 99)  ( 49,  1, 99)  ( 47,  1, 99)
  0  0.4481E-01  0 -0.4439E-01  1 -0.1832E-01
   ( 44,  1, 99)  ( 48,  1, 99)  ( 48,  1, 99)


 FLOW MODEL IS TRANSIENT
 FLOW MODEL CONTAINS CONSTANT-HEAD CELLS


 MAXIMUM STEPSIZE DURING WHICH ANY PARTICLE CANNOT MOVE MORE THAN ONE CELL
 =  8.967    (WHEN MIN. R.F.=1)  AT K=   1, I=   1, J=  99

 MAXIMUM STEPSIZE WHICH MEETS STABILITY CRITERION OF THE ADVECTION TERM
 (FOR PURE FINITE-DIFFERENCE OPTION, MIXELM=0) 
 =  8.755    (WHEN MIN. R.F.=1)  AT K=   1, I=   1, J=  99


 TOTAL NUMBER OF POINT SOURCES/SINKS PRESENT IN THE FLOW MODEL =       100

 MAXIMUM STEPSIZE WHICH MEETS STABILITY CRITERION OF THE SINK & SOURCE TERM
 =  122.8    (WHEN MIN. R.F.=1)  AT K=   1, I=   1, J=   1

 MAXIMUM STEPSIZE WHICH MEETS STABILITY CRITERION OF THE DISPERSION TERM
 =  1.999    (WHEN MIN. R.F.=1)  AT K=   1, I=   1, J=  99
     5 CALLS TO GCG PACKAGE FOR TRANSPORT TIME STEP  39 IN FLOW TIME STEP   1 STRESS PERIOD   2
    15 TOTAL ITERATIONS
 
 SOLVING FOR HEAD 


     2 CALLS TO PCG ROUTINE FOR TIME STEP   1 IN STRESS PERIOD    2
    21 TOTAL ITERATIONS

 MAXIMUM HEAD CHANGE FOR EACH ITERATION (1 INDICATES THE FIRST INNER ITERATION):

    HEAD CHANGE    HEAD CHANGE    HEAD CHANGE    HEAD CHANGE    HEAD CHANGE 
   LAYER,ROW,COL  LAYER,ROW,COL  LAYER,ROW,COL  LAYER,ROW,COL  LAYER,ROW,COL
 ---------------------------------------------------------------------------
  1  0.1652E-02  0  0.5502E-03  0  0.2402E-03  0  0.1111E-03  0  0.6606E-04
   ( 50,  1, 70)  ( 48,  1, 77)  ( 45,  1, 81)  ( 41,  1, 84)  ( 38,  1, 88)
  0  0.3898E-04  0 -0.2535E-04  0 -0.1679E-04  0 -0.1160E-04  0 -0.8953E-05
   ( 37,  1, 73)  (  4,  1, 70)  (  1,  1, 72)  (  4,  1, 58)  (  2,  1, 62)
  0 -0.5762E-05  0 -0.3592E-05  0 -0.2594E-05  0 -0.1871E-05  0 -0.1417E-05
   (  3,  1, 54)  (  4,  1, 47)  (  2,  1, 47)  (  3,  1, 39)  (  4,  1, 32)
  0 -0.1196E-05  0 -0.1101E-05  0 -0.1153E-05  0 -0.1008E-05  0 -0.8819E-06
   (  5,  1, 25)  (  7,  1,  4)  ( 48,  1, 47)  ( 49,  1, 42)  ( 43,  1, 33)
  1 -0.2528E-06
   ( 38,  1,  7)

 MAXIMUM RESIDUAL FOR EACH ITERATION (1 INDICATES THE FIRST INNER ITERATION):

    RESIDUAL       RESIDUAL       RESIDUAL       RESIDUAL       RESIDUAL    
   LAYER,ROW,COL  LAYER,ROW,COL  LAYER,ROW,COL  LAYER,ROW,COL  LAYER,ROW,COL
 ---------------------------------------------------------------------------
  1   11.29      0   6.854      0  -2.590      0  -1.444      0  -1.087    
   ( 50,  1, 73)  ( 50,  1, 64)  ( 50,  1, 78)  ( 50,  1, 83)  ( 50,  1, 61)
  0 -0.6454      0 -0.5335      0 -0.3771      0  0.2898      0  0.2335    
   ( 49,  1, 73)  ( 47,  1, 99)  ( 44,  1, 99)  ( 49,  1, 99)  ( 46,  1, 99)
  0  0.1566      0 -0.1228      0 -0.9612E-01  0  0.7123E-01  0  0.6081E-01
   ( 43,  1, 99)  ( 48,  1, 99)  ( 45,  1, 99)  ( 49,  1, 99)  ( 47,  1, 99)
  0  0.5126E-01  0 -0.5169E-01  0 -0.4885E-01  0  0.4171E-01  0  0.3423E-01
   ( 44,  1, 99)  ( 48,  1, 99)  ( 46,  1, 99)  ( 49,  1, 99)  ( 48,  1, 99)
  1  0.1369E-01
   ( 48,  1, 99)


 FLOW MODEL IS TRANSIENT
 FLOW MODEL CONTAINS CONSTANT-HEAD CELLS


 MAXIMUM STEPSIZE DURING WHICH ANY PARTICLE CANNOT MOVE MORE THAN ONE CELL
 =  8.972    (WHEN MIN. R.F.=1)  AT K=   1, I=   1, J=  99

 MAXIMUM STEPSIZE WHICH MEETS STABILITY CRITERION OF THE ADVECTION TERM
 (FOR PURE FINITE-DIFFERENCE OPTION, MIXELM=0) 
 =  8.760    (WHEN MIN. R.F.=1)  AT K=   1, I=   1, J=  99


 TOTAL NUMBER OF POINT SOURCES/SINKS PRESENT IN THE FLOW MODEL =       100

 MAXIMUM STEPSIZE WHICH MEETS STABILITY CRITERION OF THE SINK & SOURCE TERM
 =  122.8    (WHEN MIN. R.F.=1)  AT K=   1, I=   1, J=   1

 MAXIMUM STEPSIZE WHICH MEETS STABILITY CRITERION OF THE DISPERSION TERM
 =  2.000    (WHEN MIN. R.F.=1)  AT K=   1, I=   1, J=  99
     5 CALLS TO GCG PACKAGE FOR TRANSPORT TIME STEP  40 IN FLOW TIME STEP   1 STRESS PERIOD   2
    15 TOTAL ITERATIONS
 
 SOLVING FOR HEAD 


     2 CALLS TO PCG ROUTINE FOR TIME STEP   1 IN STRESS PERIOD    2
    18 TOTAL ITERATIONS

 MAXIMUM HEAD CHANGE FOR EACH ITERATION (1 INDICATES THE FIRST INNER ITERATION):

    HEAD CHANGE    HEAD CHANGE    HEAD CHANGE    HEAD CHANGE    HEAD CHANGE 
   LAYER,ROW,COL  LAYER,ROW,COL  LAYER,ROW,COL  LAYER,ROW,COL  LAYER,ROW,COL
 ---------------------------------------------------------------------------
  1  0.1640E-02  0  0.5468E-03  0  0.2396E-03  0  0.1114E-03  0  0.6633E-04
   ( 50,  1, 70)  ( 48,  1, 77)  ( 45,  1, 81)  ( 41,  1, 84)  ( 38,  1, 88)
  0 -0.3911E-04  0 -0.2551E-04  0 -0.1701E-04  0 -0.1180E-04  0 -0.9095E-05
   (  4,  1, 79)  (  4,  1, 71)  (  6,  1, 69)  (  4,  1, 58)  (  2,  1, 62)
  0 -0.5678E-05  0 -0.3523E-05  0 -0.2473E-05  0 -0.1764E-05  0 -0.1334E-05
   (  3,  1, 54)  (  5,  1, 49)  (  7,  1, 45)  (  5,  1, 38)  (  5,  1, 32)
  0 -0.1119E-05  0 -0.9734E-06  1 -0.3022E-06
   (  2,  1, 35)  ( 49,  1, 61)  (  3,  1, 72)

 MAXIMUM RESIDUAL FOR EACH ITERATION (1 INDICATES THE FIRST INNER ITERATION):

    RESIDUAL       RESIDUAL       RESIDUAL       RESIDUAL       RESIDUAL    
   LAYER,ROW,COL  LAYER,ROW,COL  LAYER,ROW,COL  LAYER,ROW,COL  LAYER,ROW,COL
 ---------------------------------------------------------------------------
  1   11.22      0   6.806      0  -2.580      0  -1.441      0  -1.085    
   ( 50,  1, 72)  ( 50,  1, 63)  ( 50,  1, 78)  ( 50,  1, 82)  ( 50,  1, 61)
  0 -0.6455      0 -0.5224      0 -0.3713      0  0.2840      0  0.2286    
   ( 49,  1, 73)  ( 47,  1, 99)  ( 44,  1, 99)  ( 49,  1, 99)  ( 46,  1, 99)
  0  0.1526      0 -0.1187      0 -0.9249E-01  0  0.6747E-01  0  0.5651E-01
   ( 43,  1, 99)  ( 48,  1, 99)  ( 45,  1, 99)  ( 49,  1, 99)  ( 47,  1, 99)
  0  0.4683E-01  0 -0.4689E-01  1 -0.1932E-01
   ( 44,  1, 99)  ( 48,  1, 99)  ( 48,  1, 99)


 FLOW MODEL IS TRANSIENT
 FLOW MODEL CONTAINS CONSTANT-HEAD CELLS


 MAXIMUM STEPSIZE DURING WHICH ANY PARTICLE CANNOT MOVE MORE THAN ONE CELL
 =  8.978    (WHEN MIN. R.F.=1)  AT K=   1, I=   1, J=  99

 MAXIMUM STEPSIZE WHICH MEETS STABILITY CRITERION OF THE ADVECTION TERM
 (FOR PURE FINITE-DIFFERENCE OPTION, MIXELM=0) 
 =  8.765    (WHEN MIN. R.F.=1)  AT K=   1, I=   1, J=  99


 TOTAL NUMBER OF POINT SOURCES/SINKS PRESENT IN THE FLOW MODEL =       100

 MAXIMUM STEPSIZE WHICH MEETS STABILITY CRITERION OF THE SINK & SOURCE TERM
 =  122.8    (WHEN MIN. R.F.=1)  AT K=   1, I=   1, J=   1

 MAXIMUM STEPSIZE WHICH MEETS STABILITY CRITERION OF THE DISPERSION TERM
 =  2.001    (WHEN MIN. R.F.=1)  AT K=   1, I=   1, J=  99
     5 CALLS TO GCG PACKAGE FOR TRANSPORT TIME STEP  41 IN FLOW TIME STEP   1 STRESS PERIOD   2
    15 TOTAL ITERATIONS
 
 SOLVING FOR HEAD 


     2 CALLS TO PCG ROUTINE FOR TIME STEP   1 IN STRESS PERIOD    2
    18 TOTAL ITERATIONS

 MAXIMUM HEAD CHANGE FOR EACH ITERATION (1 INDICATES THE FIRST INNER ITERATION):

    HEAD CHANGE    HEAD CHANGE    HEAD CHANGE    HEAD CHANGE    HEAD CHANGE 
   LAYER,ROW,COL  LAYER,ROW,COL  LAYER,ROW,COL  LAYER,ROW,COL  LAYER,ROW,COL
 ---------------------------------------------------------------------------
  1  0.1627E-02  0  0.5429E-03  0  0.2386E-03  0  0.1110E-03  0  0.6608E-04
   ( 50,  1, 69)  ( 48,  1, 77)  ( 45,  1, 81)  ( 41,  1, 84)  ( 38,  1, 87)
  0  0.3878E-04  0 -0.2478E-04  0 -0.1642E-04  0 -0.1141E-04  0 -0.8730E-05
   ( 37,  1, 73)  (  4,  1, 70)  (  6,  1, 69)  (  4,  1, 57)  (  2,  1, 61)
  0 -0.5538E-05  0 -0.3428E-05  0 -0.2462E-05  0 -0.1717E-05  0 -0.1245E-05
   (  3,  1, 53)  (  2,  1, 56)  (  2,  1, 47)  (  3,  1, 39)  (  5,  1, 32)
  0 -0.1009E-05  0 -0.8983E-06  1 -0.2887E-06
   (  5,  1, 25)  ( 49,  1, 61)  (  3,  1, 71)

 MAXIMUM RESIDUAL FOR EACH ITERATION (1 INDICATES THE FIRST INNER ITERATION):

    RESIDUAL       RESIDUAL       RESIDUAL       RESIDUAL       RESIDUAL    
   LAYER,ROW,COL  LAYER,ROW,COL  LAYER,ROW,COL  LAYER,ROW,COL  LAYER,ROW,COL
 ---------------------------------------------------------------------------
  1   11.17      0   6.813      0  -2.581      0  -1.445      0  -1.083    
   ( 50,  1, 72)  ( 50,  1, 63)  ( 50,  1, 77)  ( 50,  1, 82)  ( 50,  1, 61)
  0 -0.6427      0 -0.5117      0 -0.3654      0  0.2807      0  0.2269    
   ( 49,  1, 73)  ( 48,  1, 99)  ( 44,  1, 99)  ( 49,  1, 99)  ( 46,  1, 99)
  0  0.1529      0 -0.1177      0 -0.9111E-01  0  0.6540E-01  0  0.5416E-01
   ( 43,  1, 99)  ( 48,  1, 99)  ( 45,  1, 99)  ( 49,  1, 99)  ( 47,  1, 99)
  0  0.4439E-01  0 -0.4301E-01  1 -0.1775E-01
   ( 44,  1, 99)  ( 48,  1, 99)  ( 48,  1, 99)


 FLOW MODEL IS TRANSIENT
 FLOW MODEL CONTAINS CONSTANT-HEAD CELLS


 MAXIMUM STEPSIZE DURING WHICH ANY PARTICLE CANNOT MOVE MORE THAN ONE CELL
 =  8.983    (WHEN MIN. R.F.=1)  AT K=   1, I=   1, J=  99

 MAXIMUM STEPSIZE WHICH MEETS STABILITY CRITERION OF THE ADVECTION TERM
 (FOR PURE FINITE-DIFFERENCE OPTION, MIXELM=0) 
 =  8.770    (WHEN MIN. R.F.=1)  AT K=   1, I=   1, J=  99


 TOTAL NUMBER OF POINT SOURCES/SINKS PRESENT IN THE FLOW MODEL =       100

 MAXIMUM STEPSIZE WHICH MEETS STABILITY CRITERION OF THE SINK & SOURCE TERM
 =  122.8    (WHEN MIN. R.F.=1)  AT K=   1, I=   1, J=   1

 MAXIMUM STEPSIZE WHICH MEETS STABILITY CRITERION OF THE DISPERSION TERM
 =  2.003    (WHEN MIN. R.F.=1)  AT K=   1, I=   1, J=  99
     5 CALLS TO GCG PACKAGE FOR TRANSPORT TIME STEP  42 IN FLOW TIME STEP   1 STRESS PERIOD   2
    15 TOTAL ITERATIONS
 
 SOLVING FOR HEAD 


     2 CALLS TO PCG ROUTINE FOR TIME STEP   1 IN STRESS PERIOD    2
    12 TOTAL ITERATIONS

 MAXIMUM HEAD CHANGE FOR EACH ITERATION (1 INDICATES THE FIRST INNER ITERATION):

    HEAD CHANGE    HEAD CHANGE    HEAD CHANGE    HEAD CHANGE    HEAD CHANGE 
   LAYER,ROW,COL  LAYER,ROW,COL  LAYER,ROW,COL  LAYER,ROW,COL  LAYER,ROW,COL
 ---------------------------------------------------------------------------
  1  0.1399E-02  0  0.3888E-03  0  0.1278E-03  0  0.5355E-04  0  0.2527E-04
   ( 50,  1, 69)  ( 48,  1, 76)  ( 45,  1, 80)  ( 41,  1, 83)  ( 38,  1, 86)
  0  0.1148E-04  0 -0.5916E-05  0 -0.3320E-05  0 -0.1990E-05  0 -0.1158E-05
   ( 50,  1, 86)  (  2,  1, 83)  (  7,  1, 70)  (  1,  1, 71)  (  2,  1, 61)
  0 -0.6720E-06  1 -0.1838E-06
   (  1,  1, 64)  (  2,  1, 56)

 MAXIMUM RESIDUAL FOR EACH ITERATION (1 INDICATES THE FIRST INNER ITERATION):

    RESIDUAL       RESIDUAL       RESIDUAL       RESIDUAL       RESIDUAL    
   LAYER,ROW,COL  LAYER,ROW,COL  LAYER,ROW,COL  LAYER,ROW,COL  LAYER,ROW,COL
 ---------------------------------------------------------------------------
  1   9.799      0   5.063      0  -1.641      0  0.7442      0 -0.3971    
   ( 50,  1, 72)  ( 50,  1, 63)  ( 50,  1, 77)  ( 49,  1, 70)  ( 50,  1, 60)
  0 -0.2110      0 -0.1309      0 -0.8533E-01  0  0.5708E-01  0  0.4024E-01
   ( 49,  1, 72)  ( 47,  1, 99)  ( 44,  1, 99)  ( 48,  1, 99)  ( 46,  1, 99)
  0  0.2340E-01  1  0.7526E-02
   ( 43,  1, 99)  ( 42,  1, 99)


 FLOW MODEL IS TRANSIENT
 FLOW MODEL CONTAINS CONSTANT-HEAD CELLS


 MAXIMUM STEPSIZE DURING WHICH ANY PARTICLE CANNOT MOVE MORE THAN ONE CELL
 =  8.985    (WHEN MIN. R.F.=1)  AT K=   1, I=   1, J=  99

 MAXIMUM STEPSIZE WHICH MEETS STABILITY CRITERION OF THE ADVECTION TERM
 (FOR PURE FINITE-DIFFERENCE OPTION, MIXELM=0) 
 =  8.773    (WHEN MIN. R.F.=1)  AT K=   1, I=   1, J=  99


 TOTAL NUMBER OF POINT SOURCES/SINKS PRESENT IN THE FLOW MODEL =       100

 MAXIMUM STEPSIZE WHICH MEETS STABILITY CRITERION OF THE SINK & SOURCE TERM
 =  122.8    (WHEN MIN. R.F.=1)  AT K=   1, I=   1, J=   1

 MAXIMUM STEPSIZE WHICH MEETS STABILITY CRITERION OF THE DISPERSION TERM
 =  2.003    (WHEN MIN. R.F.=1)  AT K=   1, I=   1, J=  99
     3 CALLS TO GCG PACKAGE FOR TRANSPORT TIME STEP  43 IN FLOW TIME STEP   1 STRESS PERIOD   2
     6 TOTAL ITERATIONS
  MAXIMUM CONCENTRATION CHANGES FOR EACH ITERATION:
  MAX. CHANGE LAYER,ROW,COL MAX. CHANGE LAYER,ROW,COL MAX. CHANGE LAYER,ROW,COL MAX. CHANGE LAYER,ROW,COL MAX. CHANGE LAYER,ROW,COL
 ------------------------------------------------------------------------------------------------------------------------------------
   0.3316E-01 (  1,  1, 99)  0.3731E-04 (  1,  1, 99)  0.1490E-06 (  2,  1, 98)  0.1266E-03 (  1,  1, 98)  0.5364E-06 (  1,  1, 98)
    0.000     (  1,  1,  1)



 >>>>>>>>>>>>>>>>>>>>>>>>>>>>>>>>>>>>>>>>>>>>>>>>>>>>>>>FOR COMPONENT NO. 01<<<<<<<<<<<<<<<<<<<<<<<<<<<<<<<<<<<<<<<<<<<<<<<<<<<<<<<


                                            -------------------------------------------
                                                      TRANSPORT STEP NO.   43
                                            -------------------------------------------

 TOTAL ELAPSED TIME SINCE BEGINNING OF SIMULATION =   730.0000       D
 .....................................................................

                     CUMMULATIVE MASS BUDGETS AT END OF TRANSPORT STEP   43, TIME STEP    1, STRESS PERIOD    2
                     ------------------------------------------------------------------------------------------

                                                             IN                           OUT
                                                      ----------------             ----------------
                               CONSTANT CONCENTRATION:    1283372.                   -592488.2    
                                        CONSTANT HEAD:    0.000000                    0.000000    
                                                WELLS:    0.000000                    0.000000    
                               MASS STOR (FLOW MODEL):    38.68164                   -886.6542    
                                MASS STORAGE (SOLUTE):    334.8454                   -690370.1    
                            ---------------------------------------------------------------------------
                                              [TOTAL]:    1283745.        K          -1283745.        K

                                                          NET (IN - OUT):   0.5000000    
                                                   DISCREPANCY (PERCENT):   0.3894854E-04

 HEAD WILL BE SAVED ON UNIT   99 AT END OF TIME STEP   1, STRESS PERIOD    2
1
  MASS BUDGET FOR ENTIRE MODEL AT END OF TIME STEP  1 IN STRESS PERIOD   2
  ------------------------------------------------------------------------------

     CUMULATIVE MASS      M       RATES FOR THIS TIME STEP      M/T
     ------------------                 ------------------------

           IN:                                      IN:
           ---                                      ---
             STORAGE =       20545.2422               STORAGE =         172.6108
       CONSTANT HEAD =    18664046.0000         CONSTANT HEAD =       17314.7656
               WELLS =    10406883.0000                 WELLS =       14256.0000
                DCDT =         227.1309                  DCDT =       5.7030E-02

            TOTAL IN =    29091702.0000              TOTAL IN =       31743.4336

          OUT:                                     OUT:
          ----                                     ----
             STORAGE =     3910762.7500               STORAGE =         172.1284
       CONSTANT HEAD =    24558228.0000         CONSTANT HEAD =       31184.8770
               WELLS =           0.0000                 WELLS =           0.0000
                DCDT =      622902.5000                  DCDT =         384.2016

           TOTAL OUT =    29091892.0000             TOTAL OUT =       31741.2070

            IN - OUT =        -190.0000              IN - OUT =           2.2266

 PERCENT DISCREPANCY =          -0.00     PERCENT DISCREPANCY =           0.01



0


          TIME SUMMARY AT END OF TRANSPORT STEP   43 IN TIME STEP    1 IN STRESS PERIOD   2
                    SECONDS     MINUTES      HOURS       DAYS        YEARS
                    -----------------------------------------------------------
  TRANS STEP LENGTH 1.17445E+05  1957.4      32.624      1.3593     3.72160E-03
   TIME STEP LENGTH 3.15360E+07 5.25600E+05  8760.0      365.00     0.99932    
 STRESS PERIOD TIME 3.15360E+07 5.25600E+05  8760.0      365.00     0.99932    
         TOTAL TIME 6.30720E+07 1.05120E+06  17520.      730.00      1.9986    
1


                                   ++++++++++++++++++++++++++++++++++++++++++++++++++++++++++++++
                                                       STRESS PERIOD NO.  003
                                   ++++++++++++++++++++++++++++++++++++++++++++++++++++++++++++++


 LENGTH OF CURRENT STRESS PERIOD =   365.0000    
 NUMBER OF TIME STEPS FOR CURRENT STRESS PERIOD =    1
 TIME STEP MULTIPLIER USED IN FLOW SOLUTION =   1.000000    
 USER-SPECIFIED TRANSPORT STEPSIZE =   0.000000       D
 MAXIMUM NUMBER OF TRANSPORT STEPS ALLOWED  IN ONE FLOW TIME STEP =     50000
 MULTIPLIER FOR SUCCESSIVE TRANSPORT STEPS  [USED IN IMPLICIT SCHEMES] =     1.000
 MAXIMUM TRANSPORT STEP SIZE  [USED IN IMPLICIT SCHEMES] =   0.000000       D
1
                            STRESS PERIOD NO.    3, LENGTH =   365.0000    
                            -----------------------------------------------

                              NUMBER OF TIME STEPS =     1

                               MULTIPLIER FOR DELT =     1.000

                            INITIAL TIME STEP SIZE =   365.0000    

 NO. OF POINT SINKS/SOURCES OF SPECIFIED CONCONCENTRATIONS =    0 IN STRESS PERIOD  3

 WELL NO.  LAYER   ROW   COL   STRESS RATE         NOPRINT         
 ------------------------------------------------------------------

     50 WELLS


                                          ================================================
                                                         FROM TIME =   730.00     TO    1095.0    

 
 SOLVING FOR HEAD 


     2 CALLS TO PCG ROUTINE FOR TIME STEP   1 IN STRESS PERIOD    3
    15 TOTAL ITERATIONS

 MAXIMUM HEAD CHANGE FOR EACH ITERATION (1 INDICATES THE FIRST INNER ITERATION):

    HEAD CHANGE    HEAD CHANGE    HEAD CHANGE    HEAD CHANGE    HEAD CHANGE 
   LAYER,ROW,COL  LAYER,ROW,COL  LAYER,ROW,COL  LAYER,ROW,COL  LAYER,ROW,COL
 ---------------------------------------------------------------------------
  1  0.6414E-03  0  0.1981E-03  0  0.8339E-04  0 -0.5661E-04  0 -0.4156E-04
   ( 50,  1, 72)  ( 47,  1, 78)  ( 43,  1, 81)  (  3,  1, 83)  (  5,  1, 78)
  0 -0.2215E-04  0 -0.1341E-04  0 -0.8416E-05  0 -0.4926E-05  0 -0.3682E-05
   (  6,  1, 71)  (  7,  1, 65)  (  1,  1, 68)  (  1,  1, 60)  (  1,  1, 55)
  0 -0.2782E-05  0 -0.1717E-05  0  0.1029E-05  0 -0.6904E-06  1 -0.2468E-06
   (  2,  1, 49)  (  3,  1, 42)  (  4,  1, 77)  (  3,  1, 21)  (  4,  1, 13)

 MAXIMUM RESIDUAL FOR EACH ITERATION (1 INDICATES THE FIRST INNER ITERATION):

    RESIDUAL       RESIDUAL       RESIDUAL       RESIDUAL       RESIDUAL    
   LAYER,ROW,COL  LAYER,ROW,COL  LAYER,ROW,COL  LAYER,ROW,COL  LAYER,ROW,COL
 ---------------------------------------------------------------------------
  1   6.379      0   7.224      0   4.069      0   2.920      0   2.083    
   (  2,  1, 99)  (  1,  1, 99)  (  1,  1, 99)  (  2,  1, 97)  (  2,  1, 98)
  0 -0.9701      0 -0.7891      0 -0.3929      0  0.2531      0 -0.1568    
   (  1,  1, 99)  (  2,  1, 97)  (  2,  1, 98)  (  3,  1, 98)  (  3,  1, 97)
  0  0.9450E-01  0  0.7023E-01  0  0.4563E-01  0  0.2738E-01  1  0.1277E-01
   (  3,  1, 95)  (  3,  1, 96)  (  3,  1, 97)  ( 48,  1, 99)  ( 50,  1, 99)


 FLOW MODEL IS TRANSIENT
 FLOW MODEL CONTAINS CONSTANT-HEAD CELLS


 MAXIMUM STEPSIZE DURING WHICH ANY PARTICLE CANNOT MOVE MORE THAN ONE CELL
 =  8.966    (WHEN MIN. R.F.=1)  AT K=   1, I=   1, J=  99

 MAXIMUM STEPSIZE WHICH MEETS STABILITY CRITERION OF THE ADVECTION TERM
 (FOR PURE FINITE-DIFFERENCE OPTION, MIXELM=0) 
 =  8.745    (WHEN MIN. R.F.=1)  AT K=   1, I=   1, J=  99


 TOTAL NUMBER OF POINT SOURCES/SINKS PRESENT IN THE FLOW MODEL =       100

 MAXIMUM STEPSIZE WHICH MEETS STABILITY CRITERION OF THE SINK & SOURCE TERM
 =  122.8    (WHEN MIN. R.F.=1)  AT K=   1, I=   1, J=   1

 MAXIMUM STEPSIZE WHICH MEETS STABILITY CRITERION OF THE DISPERSION TERM
 =  1.997    (WHEN MIN. R.F.=1)  AT K=   1, I=   1, J=  99


     5 CALLS TO GCG PACKAGE FOR TRANSPORT TIME STEP   1 IN FLOW TIME STEP   1 STRESS PERIOD   3
    15 TOTAL ITERATIONS

 OUTPUT CONTROL FOR STRESS PERIOD    3   TIME STEP   1
    SAVE HEAD FOR ALL LAYERS
    SAVE BUDGET FOR ALL LAYERS
    SAVE BUDGET
 
 SOLVING FOR HEAD 


     2 CALLS TO PCG ROUTINE FOR TIME STEP   1 IN STRESS PERIOD    3
    21 TOTAL ITERATIONS

 MAXIMUM HEAD CHANGE FOR EACH ITERATION (1 INDICATES THE FIRST INNER ITERATION):

    HEAD CHANGE    HEAD CHANGE    HEAD CHANGE    HEAD CHANGE    HEAD CHANGE 
   LAYER,ROW,COL  LAYER,ROW,COL  LAYER,ROW,COL  LAYER,ROW,COL  LAYER,ROW,COL
 ---------------------------------------------------------------------------
  1  0.1563E-02  0  0.5215E-03  0  0.2339E-03  0  0.1083E-03  0  0.6243E-04
   ( 50,  1, 69)  ( 48,  1, 76)  ( 45,  1, 80)  ( 41,  1, 84)  ( 38,  1, 87)
  0 -0.4212E-04  0 -0.2681E-04  0 -0.1820E-04  0 -0.1206E-04  0 -0.9321E-05
   (  3,  1, 78)  (  4,  1, 71)  (  6,  1, 68)  (  5,  1, 58)  (  2,  1, 62)
  0 -0.5825E-05  0 -0.3742E-05  0 -0.2750E-05  0 -0.2007E-05  0 -0.1505E-05
   (  3,  1, 54)  (  5,  1, 49)  (  7,  1, 45)  (  5,  1, 37)  (  5,  1, 31)
  0 -0.1227E-05  0 -0.1270E-05  0 -0.1236E-05  0 -0.1022E-05  0 -0.9100E-06
   (  3,  1, 36)  ( 49,  1, 61)  ( 49,  1, 48)  ( 49,  1, 41)  ( 45,  1,  1)
  1 -0.2620E-06
   ( 39,  1,  7)

 MAXIMUM RESIDUAL FOR EACH ITERATION (1 INDICATES THE FIRST INNER ITERATION):

    RESIDUAL       RESIDUAL       RESIDUAL       RESIDUAL       RESIDUAL    
   LAYER,ROW,COL  LAYER,ROW,COL  LAYER,ROW,COL  LAYER,ROW,COL  LAYER,ROW,COL
 ---------------------------------------------------------------------------
  1   10.67      0   6.591      0  -2.537      0  -1.446      0  -1.024    
   ( 50,  1, 72)  ( 50,  1, 63)  ( 50,  1, 77)  ( 50,  1, 82)  ( 50,  1, 60)
  0  0.6290      0 -0.4787      0 -0.3495      0  0.2642      0  0.2198    
   ( 50,  1, 77)  ( 48,  1, 99)  ( 44,  1, 99)  ( 49,  1, 99)  ( 46,  1, 99)
  0  0.1506      0 -0.1185      0 -0.9738E-01  0  0.7271E-01  0  0.6351E-01
   ( 43,  1, 99)  ( 48,  1, 99)  ( 45,  1, 99)  ( 49,  1, 99)  ( 47,  1, 99)
  0  0.5468E-01  0 -0.5303E-01  0 -0.4985E-01  0  0.4088E-01  0  0.3285E-01
   ( 44,  1, 99)  ( 48,  1, 99)  ( 46,  1, 99)  ( 49,  1, 99)  ( 48,  1, 99)
  1  0.1333E-01
   ( 47,  1, 99)


 FLOW MODEL IS TRANSIENT
 FLOW MODEL CONTAINS CONSTANT-HEAD CELLS


 MAXIMUM STEPSIZE DURING WHICH ANY PARTICLE CANNOT MOVE MORE THAN ONE CELL
 =  8.989    (WHEN MIN. R.F.=1)  AT K=   1, I=   1, J=  99

 MAXIMUM STEPSIZE WHICH MEETS STABILITY CRITERION OF THE ADVECTION TERM
 (FOR PURE FINITE-DIFFERENCE OPTION, MIXELM=0) 
 =  8.775    (WHEN MIN. R.F.=1)  AT K=   1, I=   1, J=  99


 TOTAL NUMBER OF POINT SOURCES/SINKS PRESENT IN THE FLOW MODEL =       100

 MAXIMUM STEPSIZE WHICH MEETS STABILITY CRITERION OF THE SINK & SOURCE TERM
 =  122.8    (WHEN MIN. R.F.=1)  AT K=   1, I=   1, J=   1

 MAXIMUM STEPSIZE WHICH MEETS STABILITY CRITERION OF THE DISPERSION TERM
 =  2.004    (WHEN MIN. R.F.=1)  AT K=   1, I=   1, J=  99
     5 CALLS TO GCG PACKAGE FOR TRANSPORT TIME STEP   2 IN FLOW TIME STEP   1 STRESS PERIOD   3
    15 TOTAL ITERATIONS
 
 SOLVING FOR HEAD 


     2 CALLS TO PCG ROUTINE FOR TIME STEP   1 IN STRESS PERIOD    3
    20 TOTAL ITERATIONS

 MAXIMUM HEAD CHANGE FOR EACH ITERATION (1 INDICATES THE FIRST INNER ITERATION):

    HEAD CHANGE    HEAD CHANGE    HEAD CHANGE    HEAD CHANGE    HEAD CHANGE 
   LAYER,ROW,COL  LAYER,ROW,COL  LAYER,ROW,COL  LAYER,ROW,COL  LAYER,ROW,COL
 ---------------------------------------------------------------------------
  1  0.1587E-02  0  0.5293E-03  0  0.2347E-03  0  0.1100E-03  0  0.6585E-04
   ( 50,  1, 69)  ( 48,  1, 76)  ( 45,  1, 80)  ( 41,  1, 83)  ( 38,  1, 87)
  0 -0.3949E-04  0 -0.2542E-04  0 -0.1795E-04  0 -0.1182E-04  0 -0.8903E-05
   (  3,  1, 79)  (  1,  1, 82)  (  5,  1, 68)  (  4,  1, 58)  (  2,  1, 62)
  0 -0.5379E-05  0 -0.3394E-05  0 -0.2428E-05  0 -0.1739E-05  0 -0.1305E-05
   (  3,  1, 53)  (  5,  1, 48)  (  7,  1, 44)  (  4,  1, 37)  (  5,  1, 31)
  0 -0.1082E-05  0 -0.1010E-05  0 -0.1039E-05  0 -0.9054E-06  1 -0.2965E-06
   (  2,  1, 34)  ( 49,  1, 60)  ( 49,  1, 49)  ( 49,  1, 41)  ( 48,  1,  6)

 MAXIMUM RESIDUAL FOR EACH ITERATION (1 INDICATES THE FIRST INNER ITERATION):

    RESIDUAL       RESIDUAL       RESIDUAL       RESIDUAL       RESIDUAL    
   LAYER,ROW,COL  LAYER,ROW,COL  LAYER,ROW,COL  LAYER,ROW,COL  LAYER,ROW,COL
 ---------------------------------------------------------------------------
  1   10.88      0   6.658      0  -2.554      0  -1.438      0  -1.069    
   ( 50,  1, 72)  ( 50,  1, 63)  ( 50,  1, 77)  ( 50,  1, 82)  ( 50,  1, 60)
  0 -0.6333      0 -0.4837      0 -0.3460      0  0.2656      0  0.2173    
   ( 49,  1, 72)  ( 49,  1, 68)  ( 44,  1, 99)  ( 49,  1, 99)  ( 46,  1, 99)
  0  0.1470      0 -0.1132      0 -0.8967E-01  0  0.6520E-01  0  0.5491E-01
   ( 43,  1, 99)  ( 48,  1, 99)  ( 45,  1, 99)  ( 49,  1, 99)  ( 47,  1, 99)
  0  0.4623E-01  0 -0.4517E-01  0 -0.4366E-01  0  0.3604E-01  1  0.1450E-01
   ( 44,  1, 99)  ( 48,  1, 99)  ( 46,  1, 99)  ( 49,  1, 99)  ( 49,  1, 99)


 FLOW MODEL IS TRANSIENT
 FLOW MODEL CONTAINS CONSTANT-HEAD CELLS


 MAXIMUM STEPSIZE DURING WHICH ANY PARTICLE CANNOT MOVE MORE THAN ONE CELL
 =  8.996    (WHEN MIN. R.F.=1)  AT K=   1, I=   1, J=  99

 MAXIMUM STEPSIZE WHICH MEETS STABILITY CRITERION OF THE ADVECTION TERM
 (FOR PURE FINITE-DIFFERENCE OPTION, MIXELM=0) 
 =  8.782    (WHEN MIN. R.F.=1)  AT K=   1, I=   1, J=  99


 TOTAL NUMBER OF POINT SOURCES/SINKS PRESENT IN THE FLOW MODEL =       100

 MAXIMUM STEPSIZE WHICH MEETS STABILITY CRITERION OF THE SINK & SOURCE TERM
 =  122.8    (WHEN MIN. R.F.=1)  AT K=   1, I=   1, J=   1

 MAXIMUM STEPSIZE WHICH MEETS STABILITY CRITERION OF THE DISPERSION TERM
 =  2.005    (WHEN MIN. R.F.=1)  AT K=   1, I=   1, J=  99
     5 CALLS TO GCG PACKAGE FOR TRANSPORT TIME STEP   3 IN FLOW TIME STEP   1 STRESS PERIOD   3
    15 TOTAL ITERATIONS
 
 SOLVING FOR HEAD 


     2 CALLS TO PCG ROUTINE FOR TIME STEP   1 IN STRESS PERIOD    3
    21 TOTAL ITERATIONS

 MAXIMUM HEAD CHANGE FOR EACH ITERATION (1 INDICATES THE FIRST INNER ITERATION):

    HEAD CHANGE    HEAD CHANGE    HEAD CHANGE    HEAD CHANGE    HEAD CHANGE 
   LAYER,ROW,COL  LAYER,ROW,COL  LAYER,ROW,COL  LAYER,ROW,COL  LAYER,ROW,COL
 ---------------------------------------------------------------------------
  1  0.1583E-02  0  0.5283E-03  0  0.2347E-03  0  0.1103E-03  0  0.6596E-04
   ( 50,  1, 69)  ( 48,  1, 76)  ( 45,  1, 80)  ( 41,  1, 83)  ( 38,  1, 87)
  0  0.3903E-04  0 -0.2511E-04  0 -0.1732E-04  0 -0.1169E-04  0 -0.8765E-05
   ( 50,  1, 85)  (  1,  1, 82)  (  6,  1, 68)  (  4,  1, 57)  (  2,  1, 61)
  0 -0.5471E-05  0 -0.3458E-05  0 -0.2574E-05  0 -0.1867E-05  0 -0.1424E-05
   (  3,  1, 53)  (  2,  1, 55)  (  2,  1, 46)  (  3,  1, 38)  (  5,  1, 31)
  0 -0.1195E-05  0 -0.1113E-05  0 -0.1169E-05  0 -0.1014E-05  0 -0.8921E-06
   (  5,  1, 24)  ( 49,  1, 60)  ( 49,  1, 48)  ( 49,  1, 41)  ( 45,  1,  1)
  1 -0.2564E-06
   ( 39,  1,  7)

 MAXIMUM RESIDUAL FOR EACH ITERATION (1 INDICATES THE FIRST INNER ITERATION):

    RESIDUAL       RESIDUAL       RESIDUAL       RESIDUAL       RESIDUAL    
   LAYER,ROW,COL  LAYER,ROW,COL  LAYER,ROW,COL  LAYER,ROW,COL  LAYER,ROW,COL
 ---------------------------------------------------------------------------
  1   10.89      0   6.654      0  -2.558      0  -1.447      0  -1.073    
   ( 50,  1, 71)  ( 50,  1, 62)  ( 50,  1, 77)  ( 50,  1, 82)  ( 50,  1, 60)
  0 -0.6358      0 -0.4836      0 -0.3421      0  0.2639      0  0.2166    
   ( 49,  1, 72)  ( 49,  1, 68)  ( 44,  1, 99)  ( 49,  1, 99)  ( 46,  1, 99)
  0  0.1488      0 -0.1144      0 -0.9158E-01  0  0.6739E-01  0  0.5840E-01
   ( 43,  1, 99)  ( 48,  1, 99)  ( 45,  1, 99)  ( 49,  1, 99)  ( 47,  1, 99)
  0  0.5073E-01  0 -0.4984E-01  0 -0.4901E-01  0  0.3931E-01  0  0.3244E-01
   ( 44,  1, 99)  ( 48,  1, 99)  ( 46,  1, 99)  ( 49,  1, 99)  ( 48,  1, 99)
  1  0.1314E-01
   ( 48,  1, 99)


 FLOW MODEL IS TRANSIENT
 FLOW MODEL CONTAINS CONSTANT-HEAD CELLS


 MAXIMUM STEPSIZE DURING WHICH ANY PARTICLE CANNOT MOVE MORE THAN ONE CELL
 =  9.002    (WHEN MIN. R.F.=1)  AT K=   1, I=   1, J=  99

 MAXIMUM STEPSIZE WHICH MEETS STABILITY CRITERION OF THE ADVECTION TERM
 (FOR PURE FINITE-DIFFERENCE OPTION, MIXELM=0) 
 =  8.788    (WHEN MIN. R.F.=1)  AT K=   1, I=   1, J=  99


 TOTAL NUMBER OF POINT SOURCES/SINKS PRESENT IN THE FLOW MODEL =       100

 MAXIMUM STEPSIZE WHICH MEETS STABILITY CRITERION OF THE SINK & SOURCE TERM
 =  122.8    (WHEN MIN. R.F.=1)  AT K=   1, I=   1, J=   1

 MAXIMUM STEPSIZE WHICH MEETS STABILITY CRITERION OF THE DISPERSION TERM
 =  2.007    (WHEN MIN. R.F.=1)  AT K=   1, I=   1, J=  99
     5 CALLS TO GCG PACKAGE FOR TRANSPORT TIME STEP   4 IN FLOW TIME STEP   1 STRESS PERIOD   3
    15 TOTAL ITERATIONS
 
 SOLVING FOR HEAD 


     2 CALLS TO PCG ROUTINE FOR TIME STEP   1 IN STRESS PERIOD    3
    20 TOTAL ITERATIONS

 MAXIMUM HEAD CHANGE FOR EACH ITERATION (1 INDICATES THE FIRST INNER ITERATION):

    HEAD CHANGE    HEAD CHANGE    HEAD CHANGE    HEAD CHANGE    HEAD CHANGE 
   LAYER,ROW,COL  LAYER,ROW,COL  LAYER,ROW,COL  LAYER,ROW,COL  LAYER,ROW,COL
 ---------------------------------------------------------------------------
  1  0.1572E-02  0  0.5257E-03  0  0.2344E-03  0  0.1107E-03  0  0.6641E-04
   ( 50,  1, 68)  ( 48,  1, 76)  ( 45,  1, 80)  ( 41,  1, 83)  ( 38,  1, 86)
  0 -0.3922E-04  0 -0.2524E-04  0 -0.1763E-04  0 -0.1177E-04  0 -0.8851E-05
   (  4,  1, 79)  (  1,  1, 82)  (  6,  1, 68)  (  3,  1, 56)  (  2,  1, 61)
  0 -0.5380E-05  0 -0.3369E-05  0 -0.2447E-05  0 -0.1780E-05  0 -0.1359E-05
   (  3,  1, 53)  (  5,  1, 48)  (  2,  1, 45)  (  3,  1, 37)  (  5,  1, 31)
  0 -0.1142E-05  0 -0.1029E-05  0 -0.1081E-05  0 -0.9546E-06  1 -0.3104E-06
   (  2,  1, 34)  ( 49,  1, 60)  ( 49,  1, 48)  ( 49,  1, 41)  ( 46,  1,  1)

 MAXIMUM RESIDUAL FOR EACH ITERATION (1 INDICATES THE FIRST INNER ITERATION):

    RESIDUAL       RESIDUAL       RESIDUAL       RESIDUAL       RESIDUAL    
   LAYER,ROW,COL  LAYER,ROW,COL  LAYER,ROW,COL  LAYER,ROW,COL  LAYER,ROW,COL
 ---------------------------------------------------------------------------
  1   10.84      0   6.663      0  -2.560      0  -1.444      0  -1.070    
   ( 50,  1, 71)  ( 50,  1, 62)  ( 50,  1, 76)  ( 50,  1, 81)  ( 50,  1, 60)
  0 -0.6358      0 -0.4802      0 -0.3361      0  0.2597      0  0.2135    
   ( 49,  1, 72)  ( 49,  1, 67)  ( 44,  1, 99)  ( 49,  1, 99)  ( 46,  1, 99)
  0  0.1458      0 -0.1114      0 -0.8870E-01  0  0.6458E-01  0  0.5506E-01
   ( 43,  1, 99)  ( 48,  1, 99)  ( 45,  1, 99)  ( 49,  1, 99)  ( 47,  1, 99)
  0  0.4732E-01  0 -0.4655E-01  0 -0.4599E-01  0  0.3726E-01  1  0.1495E-01
   ( 44,  1, 99)  ( 48,  1, 99)  ( 46,  1, 99)  ( 49,  1, 99)  ( 49,  1, 99)


 FLOW MODEL IS TRANSIENT
 FLOW MODEL CONTAINS CONSTANT-HEAD CELLS


 MAXIMUM STEPSIZE DURING WHICH ANY PARTICLE CANNOT MOVE MORE THAN ONE CELL
 =  9.008    (WHEN MIN. R.F.=1)  AT K=   1, I=   1, J=  99

 MAXIMUM STEPSIZE WHICH MEETS STABILITY CRITERION OF THE ADVECTION TERM
 (FOR PURE FINITE-DIFFERENCE OPTION, MIXELM=0) 
 =  8.794    (WHEN MIN. R.F.=1)  AT K=   1, I=   1, J=  99


 TOTAL NUMBER OF POINT SOURCES/SINKS PRESENT IN THE FLOW MODEL =       100

 MAXIMUM STEPSIZE WHICH MEETS STABILITY CRITERION OF THE SINK & SOURCE TERM
 =  122.8    (WHEN MIN. R.F.=1)  AT K=   1, I=   1, J=   1

 MAXIMUM STEPSIZE WHICH MEETS STABILITY CRITERION OF THE DISPERSION TERM
 =  2.008    (WHEN MIN. R.F.=1)  AT K=   1, I=   1, J=  99
     5 CALLS TO GCG PACKAGE FOR TRANSPORT TIME STEP   5 IN FLOW TIME STEP   1 STRESS PERIOD   3
    15 TOTAL ITERATIONS
 
 SOLVING FOR HEAD 


     2 CALLS TO PCG ROUTINE FOR TIME STEP   1 IN STRESS PERIOD    3
    17 TOTAL ITERATIONS

 MAXIMUM HEAD CHANGE FOR EACH ITERATION (1 INDICATES THE FIRST INNER ITERATION):

    HEAD CHANGE    HEAD CHANGE    HEAD CHANGE    HEAD CHANGE    HEAD CHANGE 
   LAYER,ROW,COL  LAYER,ROW,COL  LAYER,ROW,COL  LAYER,ROW,COL  LAYER,ROW,COL
 ---------------------------------------------------------------------------
  1  0.1564E-02  0  0.5219E-03  0  0.2331E-03  0  0.1102E-03  0  0.6613E-04
   ( 50,  1, 68)  ( 48,  1, 76)  ( 45,  1, 80)  ( 41,  1, 83)  ( 38,  1, 86)
  0  0.3933E-04  0 -0.2482E-04  0 -0.1702E-04  0 -0.1131E-04  0 -0.8499E-05
   ( 50,  1, 85)  (  1,  1, 82)  (  6,  1, 68)  (  3,  1, 56)  (  2,  1, 61)
  0 -0.5286E-05  0 -0.3326E-05  0 -0.2401E-05  0 -0.1676E-05  0 -0.1224E-05
   (  3,  1, 52)  (  2,  1, 55)  (  2,  1, 46)  (  3,  1, 38)  (  5,  1, 31)
  0 -0.9837E-06  1 -0.3303E-06
   (  2,  1, 34)  (  2,  1, 77)

 MAXIMUM RESIDUAL FOR EACH ITERATION (1 INDICATES THE FIRST INNER ITERATION):

    RESIDUAL       RESIDUAL       RESIDUAL       RESIDUAL       RESIDUAL    
   LAYER,ROW,COL  LAYER,ROW,COL  LAYER,ROW,COL  LAYER,ROW,COL  LAYER,ROW,COL
 ---------------------------------------------------------------------------
  1   10.79      0   6.649      0  -2.563      0  -1.449      0  -1.068    
   ( 50,  1, 71)  ( 50,  1, 62)  ( 50,  1, 76)  ( 50,  1, 81)  ( 50,  1, 60)
  0 -0.6319      0 -0.4796      0 -0.3300      0  0.2549      0  0.2097    
   ( 49,  1, 72)  ( 49,  1, 67)  ( 44,  1, 99)  ( 49,  1, 99)  ( 46,  1, 99)
  0  0.1446      0 -0.1090      0 -0.8587E-01  0  0.6092E-01  0  0.5098E-01
   ( 43,  1, 99)  ( 48,  1, 99)  ( 45,  1, 99)  ( 49,  1, 99)  ( 47,  1, 99)
  0  0.4275E-01  1  0.1653E-01
   ( 44,  1, 99)  ( 44,  1, 99)


 FLOW MODEL IS TRANSIENT
 FLOW MODEL CONTAINS CONSTANT-HEAD CELLS


 MAXIMUM STEPSIZE DURING WHICH ANY PARTICLE CANNOT MOVE MORE THAN ONE CELL
 =  9.013    (WHEN MIN. R.F.=1)  AT K=   1, I=   1, J=  99

 MAXIMUM STEPSIZE WHICH MEETS STABILITY CRITERION OF THE ADVECTION TERM
 (FOR PURE FINITE-DIFFERENCE OPTION, MIXELM=0) 
 =  8.799    (WHEN MIN. R.F.=1)  AT K=   1, I=   1, J=  99


 TOTAL NUMBER OF POINT SOURCES/SINKS PRESENT IN THE FLOW MODEL =       100

 MAXIMUM STEPSIZE WHICH MEETS STABILITY CRITERION OF THE SINK & SOURCE TERM
 =  122.8    (WHEN MIN. R.F.=1)  AT K=   1, I=   1, J=   1

 MAXIMUM STEPSIZE WHICH MEETS STABILITY CRITERION OF THE DISPERSION TERM
 =  2.009    (WHEN MIN. R.F.=1)  AT K=   1, I=   1, J=  99
     5 CALLS TO GCG PACKAGE FOR TRANSPORT TIME STEP   6 IN FLOW TIME STEP   1 STRESS PERIOD   3
    15 TOTAL ITERATIONS
 
 SOLVING FOR HEAD 


     2 CALLS TO PCG ROUTINE FOR TIME STEP   1 IN STRESS PERIOD    3
    21 TOTAL ITERATIONS

 MAXIMUM HEAD CHANGE FOR EACH ITERATION (1 INDICATES THE FIRST INNER ITERATION):

    HEAD CHANGE    HEAD CHANGE    HEAD CHANGE    HEAD CHANGE    HEAD CHANGE 
   LAYER,ROW,COL  LAYER,ROW,COL  LAYER,ROW,COL  LAYER,ROW,COL  LAYER,ROW,COL
 ---------------------------------------------------------------------------
  1  0.1556E-02  0  0.5194E-03  0  0.2323E-03  0  0.1103E-03  0  0.6639E-04
   ( 50,  1, 68)  ( 48,  1, 75)  ( 45,  1, 80)  ( 41,  1, 83)  ( 38,  1, 86)
  0 -0.3973E-04  0 -0.2545E-04  0 -0.1812E-04  0 -0.1172E-04  0 -0.8813E-05
   (  4,  1, 79)  (  1,  1, 82)  (  5,  1, 67)  (  3,  1, 56)  (  2,  1, 61)
  0 -0.5294E-05  0 -0.3377E-05  0 -0.2546E-05  0 -0.1888E-05  0 -0.1477E-05
   (  3,  1, 53)  (  5,  1, 47)  (  2,  1, 44)  (  3,  1, 37)  (  5,  1, 31)
  0 -0.1269E-05  0 -0.1159E-05  0 -0.1213E-05  0 -0.1050E-05  0 -0.9601E-06
   (  2,  1, 34)  ( 49,  1, 59)  ( 49,  1, 47)  ( 49,  1, 40)  ( 45,  1,  1)
  1 -0.2458E-06
   ( 40,  1,  2)

 MAXIMUM RESIDUAL FOR EACH ITERATION (1 INDICATES THE FIRST INNER ITERATION):

    RESIDUAL       RESIDUAL       RESIDUAL       RESIDUAL       RESIDUAL    
   LAYER,ROW,COL  LAYER,ROW,COL  LAYER,ROW,COL  LAYER,ROW,COL  LAYER,ROW,COL
 ---------------------------------------------------------------------------
  1   10.72      0   6.620      0  -2.559      0  -1.448      0  -1.064    
   ( 50,  1, 71)  ( 50,  1, 62)  ( 50,  1, 76)  ( 50,  1, 81)  ( 50,  1, 59)
  0 -0.6320      0 -0.4805      0 -0.3253      0  0.2536      0  0.2096    
   ( 49,  1, 71)  ( 49,  1, 67)  ( 44,  1, 99)  ( 49,  1, 99)  ( 46,  1, 99)
  0  0.1441      0 -0.1104      0 -0.8935E-01  0  0.6629E-01  0  0.5778E-01
   ( 43,  1, 99)  ( 48,  1, 99)  ( 45,  1, 99)  ( 49,  1, 99)  ( 47,  1, 99)
  0  0.5115E-01  0 -0.5097E-01  0 -0.5022E-01  0  0.3974E-01  0  0.3225E-01
   ( 44,  1, 99)  ( 48,  1, 99)  ( 46,  1, 99)  ( 49,  1, 99)  ( 47,  1, 99)
  1  0.1318E-01
   ( 47,  1, 99)


 FLOW MODEL IS TRANSIENT
 FLOW MODEL CONTAINS CONSTANT-HEAD CELLS


 MAXIMUM STEPSIZE DURING WHICH ANY PARTICLE CANNOT MOVE MORE THAN ONE CELL
 =  9.019    (WHEN MIN. R.F.=1)  AT K=   1, I=   1, J=  99

 MAXIMUM STEPSIZE WHICH MEETS STABILITY CRITERION OF THE ADVECTION TERM
 (FOR PURE FINITE-DIFFERENCE OPTION, MIXELM=0) 
 =  8.805    (WHEN MIN. R.F.=1)  AT K=   1, I=   1, J=  99


 TOTAL NUMBER OF POINT SOURCES/SINKS PRESENT IN THE FLOW MODEL =       100

 MAXIMUM STEPSIZE WHICH MEETS STABILITY CRITERION OF THE SINK & SOURCE TERM
 =  122.8    (WHEN MIN. R.F.=1)  AT K=   1, I=   1, J=   1

 MAXIMUM STEPSIZE WHICH MEETS STABILITY CRITERION OF THE DISPERSION TERM
 =  2.010    (WHEN MIN. R.F.=1)  AT K=   1, I=   1, J=  99
     5 CALLS TO GCG PACKAGE FOR TRANSPORT TIME STEP   7 IN FLOW TIME STEP   1 STRESS PERIOD   3
    15 TOTAL ITERATIONS
 
 SOLVING FOR HEAD 


     2 CALLS TO PCG ROUTINE FOR TIME STEP   1 IN STRESS PERIOD    3
    20 TOTAL ITERATIONS

 MAXIMUM HEAD CHANGE FOR EACH ITERATION (1 INDICATES THE FIRST INNER ITERATION):

    HEAD CHANGE    HEAD CHANGE    HEAD CHANGE    HEAD CHANGE    HEAD CHANGE 
   LAYER,ROW,COL  LAYER,ROW,COL  LAYER,ROW,COL  LAYER,ROW,COL  LAYER,ROW,COL
 ---------------------------------------------------------------------------
  1  0.1546E-02  0  0.5167E-03  0  0.2315E-03  0  0.1104E-03  0  0.6664E-04
   ( 50,  1, 68)  ( 48,  1, 75)  ( 45,  1, 79)  ( 41,  1, 83)  ( 38,  1, 86)
  0  0.3931E-04  0 -0.2510E-04  0 -0.1769E-04  0 -0.1144E-04  0 -0.8553E-05
   ( 50,  1, 85)  (  1,  1, 82)  (  5,  1, 68)  (  1,  1, 70)  (  2,  1, 61)
  0 -0.5236E-05  0 -0.3335E-05  0 -0.2402E-05  0 -0.1719E-05  0 -0.1323E-05
   (  3,  1, 52)  (  5,  1, 47)  (  7,  1, 43)  (  5,  1, 36)  (  5,  1, 30)
  0 -0.1107E-05  0 -0.1018E-05  0 -0.1066E-05  0 -0.9309E-06  1 -0.3027E-06
   (  2,  1, 33)  (  3,  1, 11)  (  3,  1,  6)  ( 49,  1, 41)  ( 46,  1,  1)

 MAXIMUM RESIDUAL FOR EACH ITERATION (1 INDICATES THE FIRST INNER ITERATION):

    RESIDUAL       RESIDUAL       RESIDUAL       RESIDUAL       RESIDUAL    
   LAYER,ROW,COL  LAYER,ROW,COL  LAYER,ROW,COL  LAYER,ROW,COL  LAYER,ROW,COL
 ---------------------------------------------------------------------------
  1   10.65      0   6.568      0  -2.551      0  -1.444      0  -1.062    
   ( 50,  1, 70)  ( 50,  1, 62)  ( 50,  1, 76)  ( 50,  1, 81)  ( 50,  1, 59)
  0 -0.6319      0 -0.4766      0 -0.3192      0  0.2477      0  0.2054    
   ( 49,  1, 71)  ( 49,  1, 67)  ( 45,  1, 99)  ( 49,  1, 99)  ( 46,  1, 99)
  0  0.1413      0 -0.1071      0 -0.8563E-01  0  0.6173E-01  0  0.5277E-01
   ( 43,  1, 99)  ( 48,  1, 99)  ( 45,  1, 99)  ( 49,  1, 99)  ( 47,  1, 99)
  0  0.4563E-01  0 -0.4372E-01  0 -0.4466E-01  0  0.3516E-01  1  0.1390E-01
   ( 44,  1, 99)  ( 48,  1, 99)  ( 46,  1, 99)  ( 49,  1, 99)  ( 49,  1, 99)


 FLOW MODEL IS TRANSIENT
 FLOW MODEL CONTAINS CONSTANT-HEAD CELLS


 MAXIMUM STEPSIZE DURING WHICH ANY PARTICLE CANNOT MOVE MORE THAN ONE CELL
 =  9.024    (WHEN MIN. R.F.=1)  AT K=   1, I=   1, J=  99

 MAXIMUM STEPSIZE WHICH MEETS STABILITY CRITERION OF THE ADVECTION TERM
 (FOR PURE FINITE-DIFFERENCE OPTION, MIXELM=0) 
 =  8.810    (WHEN MIN. R.F.=1)  AT K=   1, I=   1, J=  99


 TOTAL NUMBER OF POINT SOURCES/SINKS PRESENT IN THE FLOW MODEL =       100

 MAXIMUM STEPSIZE WHICH MEETS STABILITY CRITERION OF THE SINK & SOURCE TERM
 =  122.8    (WHEN MIN. R.F.=1)  AT K=   1, I=   1, J=   1

 MAXIMUM STEPSIZE WHICH MEETS STABILITY CRITERION OF THE DISPERSION TERM
 =  2.012    (WHEN MIN. R.F.=1)  AT K=   1, I=   1, J=  99
     5 CALLS TO GCG PACKAGE FOR TRANSPORT TIME STEP   8 IN FLOW TIME STEP   1 STRESS PERIOD   3
    15 TOTAL ITERATIONS
 
 SOLVING FOR HEAD 


     2 CALLS TO PCG ROUTINE FOR TIME STEP   1 IN STRESS PERIOD    3
    20 TOTAL ITERATIONS

 MAXIMUM HEAD CHANGE FOR EACH ITERATION (1 INDICATES THE FIRST INNER ITERATION):

    HEAD CHANGE    HEAD CHANGE    HEAD CHANGE    HEAD CHANGE    HEAD CHANGE 
   LAYER,ROW,COL  LAYER,ROW,COL  LAYER,ROW,COL  LAYER,ROW,COL  LAYER,ROW,COL
 ---------------------------------------------------------------------------
  1  0.1535E-02  0  0.5137E-03  0  0.2305E-03  0  0.1097E-03  0  0.6613E-04
   ( 50,  1, 68)  ( 48,  1, 75)  ( 45,  1, 79)  ( 41,  1, 82)  ( 38,  1, 86)
  0  0.3957E-04  0 -0.2474E-04  0 -0.1718E-04  0 -0.1124E-04  0 -0.8421E-05
   ( 50,  1, 84)  (  1,  1, 82)  (  5,  1, 68)  (  3,  1, 55)  (  2,  1, 60)
  0 -0.5313E-05  0 -0.3370E-05  0 -0.2475E-05  0 -0.1781E-05  0 -0.1374E-05
   (  3,  1, 52)  (  2,  1, 54)  (  2,  1, 45)  (  3,  1, 37)  (  4,  1, 30)
  0 -0.1158E-05  0 -0.1088E-05  0 -0.1150E-05  0 -0.9830E-06  1 -0.3198E-06
   (  4,  1, 22)  (  2,  1, 10)  (  3,  1,  6)  ( 49,  1, 40)  ( 46,  1,  1)

 MAXIMUM RESIDUAL FOR EACH ITERATION (1 INDICATES THE FIRST INNER ITERATION):

    RESIDUAL       RESIDUAL       RESIDUAL       RESIDUAL       RESIDUAL    
   LAYER,ROW,COL  LAYER,ROW,COL  LAYER,ROW,COL  LAYER,ROW,COL  LAYER,ROW,COL
 ---------------------------------------------------------------------------
  1   10.61      0   6.528      0  -2.543      0  -1.447      0  -1.062    
   ( 50,  1, 70)  ( 50,  1, 61)  ( 50,  1, 76)  ( 50,  1, 81)  ( 50,  1, 59)
  0 -0.6293      0 -0.4739      0 -0.3147      0  0.2434      0  0.2028    
   ( 49,  1, 71)  ( 49,  1, 67)  ( 45,  1, 99)  ( 49,  1, 99)  ( 46,  1, 99)
  0  0.1416      0 -0.1071      0 -0.8638E-01  0  0.6268E-01  0  0.5448E-01
   ( 43,  1, 99)  ( 48,  1, 99)  ( 45,  1, 99)  ( 49,  1, 99)  ( 47,  1, 99)
  0  0.4787E-01  0 -0.4590E-01  0 -0.4706E-01  0  0.3652E-01  1  0.1440E-01
   ( 44,  1, 99)  ( 48,  1, 99)  ( 46,  1, 99)  ( 49,  1, 99)  ( 49,  1, 99)


 FLOW MODEL IS TRANSIENT
 FLOW MODEL CONTAINS CONSTANT-HEAD CELLS


 MAXIMUM STEPSIZE DURING WHICH ANY PARTICLE CANNOT MOVE MORE THAN ONE CELL
 =  9.030    (WHEN MIN. R.F.=1)  AT K=   1, I=   1, J=  99

 MAXIMUM STEPSIZE WHICH MEETS STABILITY CRITERION OF THE ADVECTION TERM
 (FOR PURE FINITE-DIFFERENCE OPTION, MIXELM=0) 
 =  8.815    (WHEN MIN. R.F.=1)  AT K=   1, I=   1, J=  99


 TOTAL NUMBER OF POINT SOURCES/SINKS PRESENT IN THE FLOW MODEL =       100

 MAXIMUM STEPSIZE WHICH MEETS STABILITY CRITERION OF THE SINK & SOURCE TERM
 =  122.8    (WHEN MIN. R.F.=1)  AT K=   1, I=   1, J=   1

 MAXIMUM STEPSIZE WHICH MEETS STABILITY CRITERION OF THE DISPERSION TERM
 =  2.013    (WHEN MIN. R.F.=1)  AT K=   1, I=   1, J=  99
     5 CALLS TO GCG PACKAGE FOR TRANSPORT TIME STEP   9 IN FLOW TIME STEP   1 STRESS PERIOD   3
    15 TOTAL ITERATIONS
 
 SOLVING FOR HEAD 


     2 CALLS TO PCG ROUTINE FOR TIME STEP   1 IN STRESS PERIOD    3
    18 TOTAL ITERATIONS

 MAXIMUM HEAD CHANGE FOR EACH ITERATION (1 INDICATES THE FIRST INNER ITERATION):

    HEAD CHANGE    HEAD CHANGE    HEAD CHANGE    HEAD CHANGE    HEAD CHANGE 
   LAYER,ROW,COL  LAYER,ROW,COL  LAYER,ROW,COL  LAYER,ROW,COL  LAYER,ROW,COL
 ---------------------------------------------------------------------------
  1  0.1524E-02  0  0.5103E-03  0  0.2298E-03  0  0.1097E-03  0  0.6612E-04
   ( 50,  1, 68)  ( 48,  1, 75)  ( 45,  1, 79)  ( 41,  1, 82)  ( 38,  1, 86)
  0  0.3970E-04  0 -0.2465E-04  0 -0.1724E-04  0 -0.1120E-04  0 -0.8255E-05
   ( 50,  1, 84)  (  1,  1, 82)  (  5,  1, 68)  (  1,  1, 70)  (  2,  1, 60)
  0 -0.5206E-05  0 -0.3315E-05  0 -0.2386E-05  0 -0.1670E-05  0 -0.1265E-05
   (  3,  1, 52)  (  5,  1, 46)  (  2,  1, 46)  (  3,  1, 38)  (  5,  1, 30)
  0 -0.1043E-05  0 -0.9760E-06  1 -0.2935E-06
   (  5,  1, 23)  (  2,  1, 10)  (  4,  1, 72)

 MAXIMUM RESIDUAL FOR EACH ITERATION (1 INDICATES THE FIRST INNER ITERATION):

    RESIDUAL       RESIDUAL       RESIDUAL       RESIDUAL       RESIDUAL    
   LAYER,ROW,COL  LAYER,ROW,COL  LAYER,ROW,COL  LAYER,ROW,COL  LAYER,ROW,COL
 ---------------------------------------------------------------------------
  1   10.56      0   6.532      0  -2.542      0  -1.444      0  -1.059    
   ( 50,  1, 70)  ( 50,  1, 61)  ( 50,  1, 75)  ( 50,  1, 81)  ( 50,  1, 59)
  0 -0.6273      0 -0.4704      0 -0.3100      0  0.2390      0  0.1993    
   ( 49,  1, 71)  ( 49,  1, 66)  ( 45,  1, 99)  ( 49,  1, 99)  ( 46,  1, 99)
  0  0.1389      0 -0.1045      0 -0.8370E-01  0  0.5966E-01  0  0.5105E-01
   ( 43,  1, 99)  ( 48,  1, 99)  ( 45,  1, 99)  ( 49,  1, 99)  ( 47,  1, 99)
  0  0.4406E-01  0 -0.4151E-01  1 -0.1645E-01
   ( 44,  1, 99)  ( 48,  1, 99)  ( 48,  1, 99)


 FLOW MODEL IS TRANSIENT
 FLOW MODEL CONTAINS CONSTANT-HEAD CELLS


 MAXIMUM STEPSIZE DURING WHICH ANY PARTICLE CANNOT MOVE MORE THAN ONE CELL
 =  9.035    (WHEN MIN. R.F.=1)  AT K=   1, I=   1, J=  99

 MAXIMUM STEPSIZE WHICH MEETS STABILITY CRITERION OF THE ADVECTION TERM
 (FOR PURE FINITE-DIFFERENCE OPTION, MIXELM=0) 
 =  8.820    (WHEN MIN. R.F.=1)  AT K=   1, I=   1, J=  99


 TOTAL NUMBER OF POINT SOURCES/SINKS PRESENT IN THE FLOW MODEL =       100

 MAXIMUM STEPSIZE WHICH MEETS STABILITY CRITERION OF THE SINK & SOURCE TERM
 =  122.8    (WHEN MIN. R.F.=1)  AT K=   1, I=   1, J=   1

 MAXIMUM STEPSIZE WHICH MEETS STABILITY CRITERION OF THE DISPERSION TERM
 =  2.014    (WHEN MIN. R.F.=1)  AT K=   1, I=   1, J=  99
     5 CALLS TO GCG PACKAGE FOR TRANSPORT TIME STEP  10 IN FLOW TIME STEP   1 STRESS PERIOD   3
    15 TOTAL ITERATIONS
 
 SOLVING FOR HEAD 


     2 CALLS TO PCG ROUTINE FOR TIME STEP   1 IN STRESS PERIOD    3
    20 TOTAL ITERATIONS

 MAXIMUM HEAD CHANGE FOR EACH ITERATION (1 INDICATES THE FIRST INNER ITERATION):

    HEAD CHANGE    HEAD CHANGE    HEAD CHANGE    HEAD CHANGE    HEAD CHANGE 
   LAYER,ROW,COL  LAYER,ROW,COL  LAYER,ROW,COL  LAYER,ROW,COL  LAYER,ROW,COL
 ---------------------------------------------------------------------------
  1  0.1516E-02  0  0.5071E-03  0  0.2292E-03  0  0.1097E-03  0  0.6627E-04
   ( 50,  1, 67)  ( 48,  1, 75)  ( 45,  1, 79)  ( 41,  1, 82)  ( 38,  1, 85)
  0  0.3974E-04  0 -0.2432E-04  0 -0.1696E-04  0 -0.1103E-04  0 -0.8264E-05
   ( 50,  1, 84)  (  1,  1, 82)  (  4,  1, 67)  (  3,  1, 55)  (  2,  1, 60)
  0 -0.5276E-05  0 -0.3451E-05  0 -0.2528E-05  0 -0.1808E-05  0 -0.1394E-05
   (  3,  1, 51)  (  2,  1, 54)  (  2,  1, 45)  (  3,  1, 38)  (  4,  1, 30)
  0 -0.1183E-05  0 -0.1109E-05  0 -0.1167E-05  0 -0.9986E-06  1 -0.3224E-06
   (  5,  1, 24)  (  2,  1, 10)  (  3,  1,  6)  ( 49,  1, 40)  ( 46,  1,  1)

 MAXIMUM RESIDUAL FOR EACH ITERATION (1 INDICATES THE FIRST INNER ITERATION):

    RESIDUAL       RESIDUAL       RESIDUAL       RESIDUAL       RESIDUAL    
   LAYER,ROW,COL  LAYER,ROW,COL  LAYER,ROW,COL  LAYER,ROW,COL  LAYER,ROW,COL
 ---------------------------------------------------------------------------
  1   10.50      0   6.520      0  -2.540      0  -1.442      0  -1.056    
   ( 50,  1, 70)  ( 50,  1, 61)  ( 50,  1, 75)  ( 50,  1, 80)  ( 50,  1, 59)
  0 -0.6247      0 -0.4699      0 -0.3057      0  0.2358      0  0.1980    
   ( 49,  1, 71)  ( 49,  1, 66)  ( 45,  1, 99)  ( 49,  1, 99)  ( 46,  1, 99)
  0  0.1398      0 -0.1053      0 -0.8550E-01  0  0.6209E-01  0  0.5438E-01
   ( 43,  1, 99)  ( 48,  1, 99)  ( 45,  1, 99)  ( 49,  1, 99)  ( 47,  1, 99)
  0  0.4821E-01  0 -0.4620E-01  0 -0.4763E-01  0  0.3641E-01  1  0.1438E-01
   ( 44,  1, 99)  ( 48,  1, 99)  ( 46,  1, 99)  ( 49,  1, 99)  ( 49,  1, 99)


 FLOW MODEL IS TRANSIENT
 FLOW MODEL CONTAINS CONSTANT-HEAD CELLS


 MAXIMUM STEPSIZE DURING WHICH ANY PARTICLE CANNOT MOVE MORE THAN ONE CELL
 =  9.040    (WHEN MIN. R.F.=1)  AT K=   1, I=   1, J=  99

 MAXIMUM STEPSIZE WHICH MEETS STABILITY CRITERION OF THE ADVECTION TERM
 (FOR PURE FINITE-DIFFERENCE OPTION, MIXELM=0) 
 =  8.825    (WHEN MIN. R.F.=1)  AT K=   1, I=   1, J=  99


 TOTAL NUMBER OF POINT SOURCES/SINKS PRESENT IN THE FLOW MODEL =       100

 MAXIMUM STEPSIZE WHICH MEETS STABILITY CRITERION OF THE SINK & SOURCE TERM
 =  122.8    (WHEN MIN. R.F.=1)  AT K=   1, I=   1, J=   1

 MAXIMUM STEPSIZE WHICH MEETS STABILITY CRITERION OF THE DISPERSION TERM
 =  2.015    (WHEN MIN. R.F.=1)  AT K=   1, I=   1, J=  99
     5 CALLS TO GCG PACKAGE FOR TRANSPORT TIME STEP  11 IN FLOW TIME STEP   1 STRESS PERIOD   3
    15 TOTAL ITERATIONS
 
 SOLVING FOR HEAD 


     2 CALLS TO PCG ROUTINE FOR TIME STEP   1 IN STRESS PERIOD    3
    20 TOTAL ITERATIONS

 MAXIMUM HEAD CHANGE FOR EACH ITERATION (1 INDICATES THE FIRST INNER ITERATION):

    HEAD CHANGE    HEAD CHANGE    HEAD CHANGE    HEAD CHANGE    HEAD CHANGE 
   LAYER,ROW,COL  LAYER,ROW,COL  LAYER,ROW,COL  LAYER,ROW,COL  LAYER,ROW,COL
 ---------------------------------------------------------------------------
  1  0.1508E-02  0  0.5039E-03  0  0.2280E-03  0  0.1095E-03  0  0.6618E-04
   ( 50,  1, 67)  ( 48,  1, 74)  ( 45,  1, 79)  ( 41,  1, 82)  ( 38,  1, 85)
  0  0.3984E-04  0 -0.2459E-04  0 -0.1736E-04  0 -0.1132E-04  0 -0.8172E-05
   ( 50,  1, 84)  (  1,  1, 82)  (  4,  1, 67)  (  1,  1, 70)  (  2,  1, 60)
  0 -0.5242E-05  0 -0.3379E-05  0 -0.2467E-05  0 -0.1751E-05  0 -0.1354E-05
   (  3,  1, 51)  (  2,  1, 54)  (  2,  1, 45)  (  3,  1, 38)  (  4,  1, 29)
  0 -0.1148E-05  0 -0.1116E-05  0 -0.1159E-05  0 -0.9969E-06  1 -0.3224E-06
   (  5,  1, 23)  (  2,  1,  9)  (  3,  1,  5)  ( 49,  1, 40)  ( 46,  1,  1)

 MAXIMUM RESIDUAL FOR EACH ITERATION (1 INDICATES THE FIRST INNER ITERATION):

    RESIDUAL       RESIDUAL       RESIDUAL       RESIDUAL       RESIDUAL    
   LAYER,ROW,COL  LAYER,ROW,COL  LAYER,ROW,COL  LAYER,ROW,COL  LAYER,ROW,COL
 ---------------------------------------------------------------------------
  1   10.44      0   6.490      0  -2.537      0  -1.445      0  -1.052    
   ( 50,  1, 70)  ( 50,  1, 61)  ( 50,  1, 75)  ( 50,  1, 80)  ( 50,  1, 59)
  0 -0.6240      0 -0.4691      0 -0.3010      0  0.2316      0  0.1949    
   ( 49,  1, 70)  ( 49,  1, 66)  ( 45,  1, 99)  ( 49,  1, 99)  ( 46,  1, 99)
  0  0.1372      0 -0.1035      0 -0.8427E-01  0  0.6098E-01  0  0.5362E-01
   ( 43,  1, 99)  ( 48,  1, 99)  ( 45,  1, 99)  ( 49,  1, 99)  ( 47,  1, 99)
  0  0.4770E-01  0 -0.4544E-01  0 -0.4730E-01  0  0.3594E-01  1  0.1407E-01
   ( 44,  1, 99)  ( 48,  1, 99)  ( 46,  1, 99)  ( 49,  1, 99)  ( 49,  1, 99)


 FLOW MODEL IS TRANSIENT
 FLOW MODEL CONTAINS CONSTANT-HEAD CELLS


 MAXIMUM STEPSIZE DURING WHICH ANY PARTICLE CANNOT MOVE MORE THAN ONE CELL
 =  9.046    (WHEN MIN. R.F.=1)  AT K=   1, I=   1, J=  99

 MAXIMUM STEPSIZE WHICH MEETS STABILITY CRITERION OF THE ADVECTION TERM
 (FOR PURE FINITE-DIFFERENCE OPTION, MIXELM=0) 
 =  8.830    (WHEN MIN. R.F.=1)  AT K=   1, I=   1, J=  99


 TOTAL NUMBER OF POINT SOURCES/SINKS PRESENT IN THE FLOW MODEL =       100

 MAXIMUM STEPSIZE WHICH MEETS STABILITY CRITERION OF THE SINK & SOURCE TERM
 =  122.8    (WHEN MIN. R.F.=1)  AT K=   1, I=   1, J=   1

 MAXIMUM STEPSIZE WHICH MEETS STABILITY CRITERION OF THE DISPERSION TERM
 =  2.016    (WHEN MIN. R.F.=1)  AT K=   1, I=   1, J=  99
     5 CALLS TO GCG PACKAGE FOR TRANSPORT TIME STEP  12 IN FLOW TIME STEP   1 STRESS PERIOD   3
    15 TOTAL ITERATIONS
 
 SOLVING FOR HEAD 


     2 CALLS TO PCG ROUTINE FOR TIME STEP   1 IN STRESS PERIOD    3
    20 TOTAL ITERATIONS

 MAXIMUM HEAD CHANGE FOR EACH ITERATION (1 INDICATES THE FIRST INNER ITERATION):

    HEAD CHANGE    HEAD CHANGE    HEAD CHANGE    HEAD CHANGE    HEAD CHANGE 
   LAYER,ROW,COL  LAYER,ROW,COL  LAYER,ROW,COL  LAYER,ROW,COL  LAYER,ROW,COL
 ---------------------------------------------------------------------------
  1  0.1500E-02  0  0.5013E-03  0  0.2271E-03  0  0.1093E-03  0  0.6617E-04
   ( 50,  1, 67)  ( 48,  1, 74)  ( 45,  1, 79)  ( 41,  1, 82)  ( 38,  1, 85)
  0  0.3988E-04  0 -0.2447E-04  0 -0.1722E-04  0 -0.1123E-04  0 -0.8103E-05
   ( 50,  1, 84)  (  1,  1, 82)  (  4,  1, 67)  (  1,  1, 70)  (  2,  1, 60)
  0 -0.5179E-05  0 -0.3326E-05  0 -0.2407E-05  0 -0.1686E-05  0 -0.1270E-05
   (  3,  1, 51)  (  2,  1, 54)  (  2,  1, 45)  (  3,  1, 38)  (  4,  1, 29)
  0 -0.1055E-05  0 -0.1013E-05  0 -0.1063E-05  0 -0.9255E-06  1 -0.3024E-06
   (  5,  1, 23)  (  2,  1,  9)  (  3,  1,  5)  ( 49,  1, 40)  ( 46,  1,  1)

 MAXIMUM RESIDUAL FOR EACH ITERATION (1 INDICATES THE FIRST INNER ITERATION):

    RESIDUAL       RESIDUAL       RESIDUAL       RESIDUAL       RESIDUAL    
   LAYER,ROW,COL  LAYER,ROW,COL  LAYER,ROW,COL  LAYER,ROW,COL  LAYER,ROW,COL
 ---------------------------------------------------------------------------
  1   10.38      0   6.447      0  -2.531      0  -1.443      0  -1.051    
   ( 50,  1, 69)  ( 50,  1, 61)  ( 50,  1, 75)  ( 50,  1, 80)  ( 50,  1, 58)
  0 -0.6229      0 -0.4674      0 -0.2965      0  0.2276      0  0.1918    
   ( 49,  1, 70)  ( 49,  1, 66)  ( 45,  1, 99)  ( 49,  1, 99)  ( 46,  1, 99)
  0  0.1355      0 -0.1012      0 -0.8191E-01  0  0.5833E-01  0  0.5067E-01
   ( 43,  1, 99)  ( 48,  1, 99)  ( 45,  1, 99)  ( 49,  1, 99)  ( 47,  1, 99)
  0  0.4436E-01  0 -0.4148E-01  0 -0.4383E-01  0  0.3341E-01  1  0.1305E-01
   ( 44,  1, 99)  ( 48,  1, 99)  ( 46,  1, 99)  ( 49,  1, 99)  ( 49,  1, 99)


 FLOW MODEL IS TRANSIENT
 FLOW MODEL CONTAINS CONSTANT-HEAD CELLS


 MAXIMUM STEPSIZE DURING WHICH ANY PARTICLE CANNOT MOVE MORE THAN ONE CELL
 =  9.051    (WHEN MIN. R.F.=1)  AT K=   1, I=   1, J=  99

 MAXIMUM STEPSIZE WHICH MEETS STABILITY CRITERION OF THE ADVECTION TERM
 (FOR PURE FINITE-DIFFERENCE OPTION, MIXELM=0) 
 =  8.835    (WHEN MIN. R.F.=1)  AT K=   1, I=   1, J=  99


 TOTAL NUMBER OF POINT SOURCES/SINKS PRESENT IN THE FLOW MODEL =       100

 MAXIMUM STEPSIZE WHICH MEETS STABILITY CRITERION OF THE SINK & SOURCE TERM
 =  122.8    (WHEN MIN. R.F.=1)  AT K=   1, I=   1, J=   1

 MAXIMUM STEPSIZE WHICH MEETS STABILITY CRITERION OF THE DISPERSION TERM
 =  2.017    (WHEN MIN. R.F.=1)  AT K=   1, I=   1, J=  99
     5 CALLS TO GCG PACKAGE FOR TRANSPORT TIME STEP  13 IN FLOW TIME STEP   1 STRESS PERIOD   3
    15 TOTAL ITERATIONS
 
 SOLVING FOR HEAD 


     2 CALLS TO PCG ROUTINE FOR TIME STEP   1 IN STRESS PERIOD    3
    20 TOTAL ITERATIONS

 MAXIMUM HEAD CHANGE FOR EACH ITERATION (1 INDICATES THE FIRST INNER ITERATION):

    HEAD CHANGE    HEAD CHANGE    HEAD CHANGE    HEAD CHANGE    HEAD CHANGE 
   LAYER,ROW,COL  LAYER,ROW,COL  LAYER,ROW,COL  LAYER,ROW,COL  LAYER,ROW,COL
 ---------------------------------------------------------------------------
  1  0.1490E-02  0  0.4986E-03  0  0.2261E-03  0  0.1091E-03  0  0.6620E-04
   ( 50,  1, 67)  ( 48,  1, 74)  ( 45,  1, 78)  ( 41,  1, 82)  ( 38,  1, 85)
  0  0.3992E-04  0 -0.2450E-04  0 -0.1736E-04  0 -0.1134E-04  0 -0.8003E-05
   ( 50,  1, 84)  (  1,  1, 82)  (  4,  1, 67)  (  1,  1, 70)  (  2,  1, 60)
  0 -0.5163E-05  0 -0.3368E-05  0 -0.2447E-05  0 -0.1723E-05  0 -0.1303E-05
   (  3,  1, 51)  (  2,  1, 53)  (  2,  1, 45)  (  3,  1, 39)  (  4,  1, 30)
  0 -0.1093E-05  0 -0.1067E-05  0 -0.1109E-05  0 -0.9651E-06  1 -0.3116E-06
   (  5,  1, 23)  (  2,  1,  9)  (  3,  1,  5)  ( 49,  1, 40)  ( 46,  1,  1)

 MAXIMUM RESIDUAL FOR EACH ITERATION (1 INDICATES THE FIRST INNER ITERATION):

    RESIDUAL       RESIDUAL       RESIDUAL       RESIDUAL       RESIDUAL    
   LAYER,ROW,COL  LAYER,ROW,COL  LAYER,ROW,COL  LAYER,ROW,COL  LAYER,ROW,COL
 ---------------------------------------------------------------------------
  1   10.34      0   6.388      0  -2.519      0  -1.443      0  -1.050    
   ( 50,  1, 69)  ( 50,  1, 61)  ( 50,  1, 75)  ( 50,  1, 80)  ( 50,  1, 58)
  0 -0.6219      0 -0.4654      0 -0.2921      0  0.2239      0  0.1895    
   ( 49,  1, 70)  ( 49,  1, 66)  ( 45,  1, 99)  ( 49,  1, 99)  ( 46,  1, 99)
  0  0.1345      0 -0.1006      0 -0.8198E-01  0  0.5866E-01  0  0.5162E-01
   ( 43,  1, 99)  ( 48,  1, 99)  ( 45,  1, 99)  ( 49,  1, 99)  ( 47,  1, 99)
  0  0.4579E-01  0 -0.4297E-01  0 -0.4551E-01  0  0.3427E-01  1  0.1337E-01
   ( 44,  1, 99)  ( 48,  1, 99)  ( 46,  1, 99)  ( 49,  1, 99)  ( 49,  1, 99)


 FLOW MODEL IS TRANSIENT
 FLOW MODEL CONTAINS CONSTANT-HEAD CELLS


 MAXIMUM STEPSIZE DURING WHICH ANY PARTICLE CANNOT MOVE MORE THAN ONE CELL
 =  9.056    (WHEN MIN. R.F.=1)  AT K=   1, I=   1, J=  99

 MAXIMUM STEPSIZE WHICH MEETS STABILITY CRITERION OF THE ADVECTION TERM
 (FOR PURE FINITE-DIFFERENCE OPTION, MIXELM=0) 
 =  8.840    (WHEN MIN. R.F.=1)  AT K=   1, I=   1, J=  99


 TOTAL NUMBER OF POINT SOURCES/SINKS PRESENT IN THE FLOW MODEL =       100

 MAXIMUM STEPSIZE WHICH MEETS STABILITY CRITERION OF THE SINK & SOURCE TERM
 =  122.8    (WHEN MIN. R.F.=1)  AT K=   1, I=   1, J=   1

 MAXIMUM STEPSIZE WHICH MEETS STABILITY CRITERION OF THE DISPERSION TERM
 =  2.019    (WHEN MIN. R.F.=1)  AT K=   1, I=   1, J=  99
     5 CALLS TO GCG PACKAGE FOR TRANSPORT TIME STEP  14 IN FLOW TIME STEP   1 STRESS PERIOD   3
    15 TOTAL ITERATIONS
 
 SOLVING FOR HEAD 


     2 CALLS TO PCG ROUTINE FOR TIME STEP   1 IN STRESS PERIOD    3
    17 TOTAL ITERATIONS

 MAXIMUM HEAD CHANGE FOR EACH ITERATION (1 INDICATES THE FIRST INNER ITERATION):

    HEAD CHANGE    HEAD CHANGE    HEAD CHANGE    HEAD CHANGE    HEAD CHANGE 
   LAYER,ROW,COL  LAYER,ROW,COL  LAYER,ROW,COL  LAYER,ROW,COL  LAYER,ROW,COL
 ---------------------------------------------------------------------------
  1  0.1480E-02  0  0.4957E-03  0  0.2254E-03  0  0.1089E-03  0  0.6615E-04
   ( 50,  1, 67)  ( 48,  1, 74)  ( 45,  1, 78)  ( 42,  1, 82)  ( 38,  1, 85)
  0  0.3997E-04  0 -0.2441E-04  0 -0.1727E-04  0 -0.1128E-04  0 -0.7879E-05
   ( 50,  1, 83)  (  1,  1, 82)  (  4,  1, 67)  (  1,  1, 70)  (  2,  1, 59)
  0 -0.5054E-05  0 -0.3283E-05  0 -0.2336E-05  0 -0.1600E-05  0 -0.1161E-05
   (  3,  1, 50)  (  2,  1, 53)  (  2,  1, 45)  (  3,  1, 39)  (  4,  1, 30)
  0 -0.9358E-06  1 -0.3132E-06
   (  5,  1, 24)  (  2,  1, 76)

 MAXIMUM RESIDUAL FOR EACH ITERATION (1 INDICATES THE FIRST INNER ITERATION):

    RESIDUAL       RESIDUAL       RESIDUAL       RESIDUAL       RESIDUAL    
   LAYER,ROW,COL  LAYER,ROW,COL  LAYER,ROW,COL  LAYER,ROW,COL  LAYER,ROW,COL
 ---------------------------------------------------------------------------
  1   10.29      0   6.391      0  -2.513      0  -1.441      0  -1.047    
   ( 50,  1, 69)  ( 50,  1, 60)  ( 50,  1, 74)  ( 50,  1, 80)  ( 50,  1, 58)
  0 -0.6202      0 -0.4620      0 -0.2871      0  0.2196      0  0.1860    
   ( 49,  1, 70)  ( 49,  1, 66)  ( 45,  1, 99)  ( 49,  1, 99)  ( 46,  1, 99)
  0  0.1322      0 -0.9766E-01  0 -0.7851E-01  0  0.5460E-01  0  0.4680E-01
   ( 43,  1, 99)  ( 48,  1, 99)  ( 45,  1, 99)  ( 49,  1, 99)  ( 47,  1, 99)
  0  0.4016E-01  1  0.1510E-01
   ( 44,  1, 99)  ( 44,  1, 99)


 FLOW MODEL IS TRANSIENT
 FLOW MODEL CONTAINS CONSTANT-HEAD CELLS


 MAXIMUM STEPSIZE DURING WHICH ANY PARTICLE CANNOT MOVE MORE THAN ONE CELL
 =  9.061    (WHEN MIN. R.F.=1)  AT K=   1, I=   1, J=  99

 MAXIMUM STEPSIZE WHICH MEETS STABILITY CRITERION OF THE ADVECTION TERM
 (FOR PURE FINITE-DIFFERENCE OPTION, MIXELM=0) 
 =  8.845    (WHEN MIN. R.F.=1)  AT K=   1, I=   1, J=  99


 TOTAL NUMBER OF POINT SOURCES/SINKS PRESENT IN THE FLOW MODEL =       100

 MAXIMUM STEPSIZE WHICH MEETS STABILITY CRITERION OF THE SINK & SOURCE TERM
 =  122.8    (WHEN MIN. R.F.=1)  AT K=   1, I=   1, J=   1

 MAXIMUM STEPSIZE WHICH MEETS STABILITY CRITERION OF THE DISPERSION TERM
 =  2.020    (WHEN MIN. R.F.=1)  AT K=   1, I=   1, J=  99
     5 CALLS TO GCG PACKAGE FOR TRANSPORT TIME STEP  15 IN FLOW TIME STEP   1 STRESS PERIOD   3
    15 TOTAL ITERATIONS
 
 SOLVING FOR HEAD 


     2 CALLS TO PCG ROUTINE FOR TIME STEP   1 IN STRESS PERIOD    3
    20 TOTAL ITERATIONS

 MAXIMUM HEAD CHANGE FOR EACH ITERATION (1 INDICATES THE FIRST INNER ITERATION):

    HEAD CHANGE    HEAD CHANGE    HEAD CHANGE    HEAD CHANGE    HEAD CHANGE 
   LAYER,ROW,COL  LAYER,ROW,COL  LAYER,ROW,COL  LAYER,ROW,COL  LAYER,ROW,COL
 ---------------------------------------------------------------------------
  1  0.1471E-02  0  0.4927E-03  0  0.2249E-03  0  0.1090E-03  0  0.6636E-04
   ( 50,  1, 66)  ( 48,  1, 74)  ( 45,  1, 78)  ( 42,  1, 82)  ( 38,  1, 84)
  0  0.3994E-04  0 -0.2511E-04  0 -0.1801E-04  0 -0.1187E-04  0 -0.8176E-05
   ( 50,  1, 83)  (  1,  1, 82)  (  5,  1, 67)  (  1,  1, 69)  (  2,  1, 60)
  0 -0.4992E-05  0 -0.3213E-05  0 -0.2331E-05  0 -0.1667E-05  0 -0.1318E-05
   (  3,  1, 51)  (  2,  1, 53)  (  2,  1, 44)  (  7,  1, 36)  (  5,  1, 28)
  0 -0.1117E-05  0 -0.1073E-05  0 -0.1058E-05  0 -0.9309E-06  1 -0.3100E-06
   (  2,  1, 31)  (  2,  1,  8)  (  4,  1,  4)  ( 12,  1,  3)  ( 47,  1,  1)

 MAXIMUM RESIDUAL FOR EACH ITERATION (1 INDICATES THE FIRST INNER ITERATION):

    RESIDUAL       RESIDUAL       RESIDUAL       RESIDUAL       RESIDUAL    
   LAYER,ROW,COL  LAYER,ROW,COL  LAYER,ROW,COL  LAYER,ROW,COL  LAYER,ROW,COL
 ---------------------------------------------------------------------------
  1   10.24      0   6.386      0  -2.512      0  -1.437      0  -1.044    
   ( 50,  1, 69)  ( 50,  1, 60)  ( 50,  1, 74)  ( 50,  1, 79)  ( 50,  1, 58)
  0 -0.6194      0 -0.4637      0 -0.2841      0  0.2170      0  0.1854    
   ( 49,  1, 70)  ( 49,  1, 65)  ( 45,  1, 99)  ( 49,  1, 99)  ( 46,  1, 99)
  0  0.1315      0 -0.9745E-01  0 -0.7960E-01  0  0.5665E-01  0  0.4936E-01
   ( 43,  1, 99)  ( 48,  1, 99)  ( 45,  1, 99)  ( 49,  1, 99)  ( 47,  1, 99)
  0  0.4331E-01  0 -0.4154E-01  0 -0.4331E-01  0  0.3306E-01  1  0.1326E-01
   ( 44,  1, 99)  ( 48,  1, 99)  ( 46,  1, 99)  ( 49,  1, 99)  ( 49,  1, 99)


 FLOW MODEL IS TRANSIENT
 FLOW MODEL CONTAINS CONSTANT-HEAD CELLS


 MAXIMUM STEPSIZE DURING WHICH ANY PARTICLE CANNOT MOVE MORE THAN ONE CELL
 =  9.066    (WHEN MIN. R.F.=1)  AT K=   1, I=   1, J=  99

 MAXIMUM STEPSIZE WHICH MEETS STABILITY CRITERION OF THE ADVECTION TERM
 (FOR PURE FINITE-DIFFERENCE OPTION, MIXELM=0) 
 =  8.850    (WHEN MIN. R.F.=1)  AT K=   1, I=   1, J=  99


 TOTAL NUMBER OF POINT SOURCES/SINKS PRESENT IN THE FLOW MODEL =       100

 MAXIMUM STEPSIZE WHICH MEETS STABILITY CRITERION OF THE SINK & SOURCE TERM
 =  122.8    (WHEN MIN. R.F.=1)  AT K=   1, I=   1, J=   1

 MAXIMUM STEPSIZE WHICH MEETS STABILITY CRITERION OF THE DISPERSION TERM
 =  2.021    (WHEN MIN. R.F.=1)  AT K=   1, I=   1, J=  99
     5 CALLS TO GCG PACKAGE FOR TRANSPORT TIME STEP  16 IN FLOW TIME STEP   1 STRESS PERIOD   3
    15 TOTAL ITERATIONS
 
 SOLVING FOR HEAD 


     2 CALLS TO PCG ROUTINE FOR TIME STEP   1 IN STRESS PERIOD    3
    17 TOTAL ITERATIONS

 MAXIMUM HEAD CHANGE FOR EACH ITERATION (1 INDICATES THE FIRST INNER ITERATION):

    HEAD CHANGE    HEAD CHANGE    HEAD CHANGE    HEAD CHANGE    HEAD CHANGE 
   LAYER,ROW,COL  LAYER,ROW,COL  LAYER,ROW,COL  LAYER,ROW,COL  LAYER,ROW,COL
 ---------------------------------------------------------------------------
  1  0.1464E-02  0  0.4893E-03  0  0.2239E-03  0  0.1088E-03  0  0.6623E-04
   ( 50,  1, 66)  ( 48,  1, 74)  ( 45,  1, 78)  ( 42,  1, 82)  ( 38,  1, 84)
  0  0.4009E-04  0 -0.2429E-04  0 -0.1690E-04  0 -0.1111E-04  0 -0.8056E-05
   ( 50,  1, 83)  (  1,  1, 82)  (  4,  1, 66)  (  1,  1, 69)  (  2,  1, 59)
  0 -0.5001E-05  0 -0.3258E-05  0 -0.2316E-05  0 -0.1598E-05  0 -0.1164E-05
   (  3,  1, 50)  (  2,  1, 53)  (  2,  1, 44)  (  3,  1, 37)  (  4,  1, 30)
  0 -0.9288E-06  1 -0.3040E-06
   (  5,  1, 24)  (  2,  1, 76)

 MAXIMUM RESIDUAL FOR EACH ITERATION (1 INDICATES THE FIRST INNER ITERATION):

    RESIDUAL       RESIDUAL       RESIDUAL       RESIDUAL       RESIDUAL    
   LAYER,ROW,COL  LAYER,ROW,COL  LAYER,ROW,COL  LAYER,ROW,COL  LAYER,ROW,COL
 ---------------------------------------------------------------------------
  1   10.17      0   6.365      0  -2.509      0  -1.439      0  -1.041    
   ( 50,  1, 69)  ( 50,  1, 60)  ( 50,  1, 74)  ( 50,  1, 79)  ( 50,  1, 58)
  0 -0.6170      0 -0.4623      0 -0.2782      0  0.2112      0  0.1809    
   ( 49,  1, 69)  ( 49,  1, 65)  ( 45,  1, 99)  ( 49,  1, 99)  ( 46,  1, 99)
  0  0.1306      0 -0.9554E-01  0 -0.7697E-01  0 -0.5324E-01  0  0.4585E-01
   ( 43,  1, 99)  ( 48,  1, 99)  ( 45,  1, 99)  ( 42,  1, 99)  ( 47,  1, 99)
  0  0.3943E-01  1  0.1483E-01
   ( 44,  1, 99)  ( 44,  1, 99)


 FLOW MODEL IS TRANSIENT
 FLOW MODEL CONTAINS CONSTANT-HEAD CELLS


 MAXIMUM STEPSIZE DURING WHICH ANY PARTICLE CANNOT MOVE MORE THAN ONE CELL
 =  9.072    (WHEN MIN. R.F.=1)  AT K=   1, I=   1, J=  99

 MAXIMUM STEPSIZE WHICH MEETS STABILITY CRITERION OF THE ADVECTION TERM
 (FOR PURE FINITE-DIFFERENCE OPTION, MIXELM=0) 
 =  8.855    (WHEN MIN. R.F.=1)  AT K=   1, I=   1, J=  99


 TOTAL NUMBER OF POINT SOURCES/SINKS PRESENT IN THE FLOW MODEL =       100

 MAXIMUM STEPSIZE WHICH MEETS STABILITY CRITERION OF THE SINK & SOURCE TERM
 =  122.8    (WHEN MIN. R.F.=1)  AT K=   1, I=   1, J=   1

 MAXIMUM STEPSIZE WHICH MEETS STABILITY CRITERION OF THE DISPERSION TERM
 =  2.022    (WHEN MIN. R.F.=1)  AT K=   1, I=   1, J=  99
     5 CALLS TO GCG PACKAGE FOR TRANSPORT TIME STEP  17 IN FLOW TIME STEP   1 STRESS PERIOD   3
    15 TOTAL ITERATIONS
 
 SOLVING FOR HEAD 


     2 CALLS TO PCG ROUTINE FOR TIME STEP   1 IN STRESS PERIOD    3
    18 TOTAL ITERATIONS

 MAXIMUM HEAD CHANGE FOR EACH ITERATION (1 INDICATES THE FIRST INNER ITERATION):

    HEAD CHANGE    HEAD CHANGE    HEAD CHANGE    HEAD CHANGE    HEAD CHANGE 
   LAYER,ROW,COL  LAYER,ROW,COL  LAYER,ROW,COL  LAYER,ROW,COL  LAYER,ROW,COL
 ---------------------------------------------------------------------------
  1  0.1456E-02  0  0.4867E-03  0  0.2231E-03  0  0.1087E-03  0  0.6640E-04
   ( 50,  1, 66)  ( 48,  1, 73)  ( 45,  1, 78)  ( 42,  1, 82)  ( 38,  1, 84)
  0  0.4007E-04  0 -0.2499E-04  0 -0.1789E-04  0 -0.1183E-04  0 -0.8010E-05
   ( 50,  1, 83)  (  1,  1, 82)  (  4,  1, 66)  (  1,  1, 69)  (  2,  1, 60)
  0 -0.4922E-05  0 -0.3176E-05  0 -0.2271E-05  0 -0.1588E-05  0 -0.1239E-05
   (  3,  1, 50)  (  2,  1, 52)  (  2,  1, 44)  (  6,  1, 35)  (  5,  1, 28)
  0 -0.1042E-05  0 -0.1000E-05  1 -0.3418E-06
   (  2,  1, 31)  (  2,  1,  7)  ( 21,  1,  3)

 MAXIMUM RESIDUAL FOR EACH ITERATION (1 INDICATES THE FIRST INNER ITERATION):

    RESIDUAL       RESIDUAL       RESIDUAL       RESIDUAL       RESIDUAL    
   LAYER,ROW,COL  LAYER,ROW,COL  LAYER,ROW,COL  LAYER,ROW,COL  LAYER,ROW,COL
 ---------------------------------------------------------------------------
  1   10.11      0   6.327      0  -2.503      0  -1.439      0  -1.038    
   ( 50,  1, 68)  ( 50,  1, 60)  ( 50,  1, 74)  ( 50,  1, 79)  ( 50,  1, 57)
  0 -0.6176      0 -0.4611      0 -0.2742      0  0.2089      0  0.1799    
   ( 49,  1, 69)  ( 49,  1, 65)  ( 45,  1, 99)  ( 49,  1, 99)  ( 46,  1, 99)
  0  0.1286      0 -0.9441E-01  0 -0.7696E-01  0  0.5386E-01  0  0.4671E-01
   ( 43,  1, 99)  ( 48,  1, 99)  ( 45,  1, 99)  ( 49,  1, 99)  ( 47,  1, 99)
  0  0.4052E-01  0 -0.3815E-01  1 -0.1493E-01
   ( 44,  1, 99)  ( 48,  1, 99)  ( 48,  1, 99)


 FLOW MODEL IS TRANSIENT
 FLOW MODEL CONTAINS CONSTANT-HEAD CELLS


 MAXIMUM STEPSIZE DURING WHICH ANY PARTICLE CANNOT MOVE MORE THAN ONE CELL
 =  9.077    (WHEN MIN. R.F.=1)  AT K=   1, I=   1, J=  99

 MAXIMUM STEPSIZE WHICH MEETS STABILITY CRITERION OF THE ADVECTION TERM
 (FOR PURE FINITE-DIFFERENCE OPTION, MIXELM=0) 
 =  8.860    (WHEN MIN. R.F.=1)  AT K=   1, I=   1, J=  99


 TOTAL NUMBER OF POINT SOURCES/SINKS PRESENT IN THE FLOW MODEL =       100

 MAXIMUM STEPSIZE WHICH MEETS STABILITY CRITERION OF THE SINK & SOURCE TERM
 =  122.8    (WHEN MIN. R.F.=1)  AT K=   1, I=   1, J=   1

 MAXIMUM STEPSIZE WHICH MEETS STABILITY CRITERION OF THE DISPERSION TERM
 =  2.023    (WHEN MIN. R.F.=1)  AT K=   1, I=   1, J=  99
     5 CALLS TO GCG PACKAGE FOR TRANSPORT TIME STEP  18 IN FLOW TIME STEP   1 STRESS PERIOD   3
    15 TOTAL ITERATIONS
 
 SOLVING FOR HEAD 


     2 CALLS TO PCG ROUTINE FOR TIME STEP   1 IN STRESS PERIOD    3
    17 TOTAL ITERATIONS

 MAXIMUM HEAD CHANGE FOR EACH ITERATION (1 INDICATES THE FIRST INNER ITERATION):

    HEAD CHANGE    HEAD CHANGE    HEAD CHANGE    HEAD CHANGE    HEAD CHANGE 
   LAYER,ROW,COL  LAYER,ROW,COL  LAYER,ROW,COL  LAYER,ROW,COL  LAYER,ROW,COL
 ---------------------------------------------------------------------------
  1  0.1448E-02  0  0.4842E-03  0  0.2222E-03  0  0.1086E-03  0  0.6641E-04
   ( 50,  1, 66)  ( 48,  1, 73)  ( 45,  1, 78)  ( 42,  1, 82)  ( 38,  1, 84)
  0  0.4013E-04  0 -0.2404E-04  0 -0.1680E-04  0 -0.1102E-04  0 -0.7966E-05
   ( 50,  1, 83)  (  1,  1, 82)  (  5,  1, 66)  (  1,  1, 69)  (  2,  1, 59)
  0 -0.4988E-05  0 -0.3303E-05  0 -0.2358E-05  0 -0.1638E-05  0 -0.1204E-05
   (  3,  1, 50)  (  2,  1, 53)  (  2,  1, 44)  (  3,  1, 37)  (  4,  1, 30)
  0 -0.9741E-06  1 -0.3055E-06
   (  5,  1, 24)  (  2,  1, 76)

 MAXIMUM RESIDUAL FOR EACH ITERATION (1 INDICATES THE FIRST INNER ITERATION):

    RESIDUAL       RESIDUAL       RESIDUAL       RESIDUAL       RESIDUAL    
   LAYER,ROW,COL  LAYER,ROW,COL  LAYER,ROW,COL  LAYER,ROW,COL  LAYER,ROW,COL
 ---------------------------------------------------------------------------
  1   10.07      0   6.276      0  -2.493      0  -1.437      0  -1.038    
   ( 50,  1, 68)  ( 50,  1, 60)  ( 50,  1, 74)  ( 50,  1, 79)  ( 50,  1, 57)
  0 -0.6154      0 -0.4588      0 -0.2691      0  0.2032      0  0.1762    
   ( 49,  1, 69)  ( 49,  1, 65)  ( 45,  1, 99)  ( 49,  1, 99)  ( 46,  1, 99)
  0  0.1288      0 -0.9385E-01  0 -0.7628E-01  0 -0.5347E-01  0  0.4634E-01
   ( 43,  1, 99)  ( 48,  1, 99)  ( 45,  1, 99)  ( 42,  1, 99)  ( 47,  1, 99)
  0  0.4046E-01  1  0.1520E-01
   ( 44,  1, 99)  ( 44,  1, 99)


 FLOW MODEL IS TRANSIENT
 FLOW MODEL CONTAINS CONSTANT-HEAD CELLS


 MAXIMUM STEPSIZE DURING WHICH ANY PARTICLE CANNOT MOVE MORE THAN ONE CELL
 =  9.082    (WHEN MIN. R.F.=1)  AT K=   1, I=   1, J=  99

 MAXIMUM STEPSIZE WHICH MEETS STABILITY CRITERION OF THE ADVECTION TERM
 (FOR PURE FINITE-DIFFERENCE OPTION, MIXELM=0) 
 =  8.865    (WHEN MIN. R.F.=1)  AT K=   1, I=   1, J=  99


 TOTAL NUMBER OF POINT SOURCES/SINKS PRESENT IN THE FLOW MODEL =       100

 MAXIMUM STEPSIZE WHICH MEETS STABILITY CRITERION OF THE SINK & SOURCE TERM
 =  122.8    (WHEN MIN. R.F.=1)  AT K=   1, I=   1, J=   1

 MAXIMUM STEPSIZE WHICH MEETS STABILITY CRITERION OF THE DISPERSION TERM
 =  2.024    (WHEN MIN. R.F.=1)  AT K=   1, I=   1, J=  99
     5 CALLS TO GCG PACKAGE FOR TRANSPORT TIME STEP  19 IN FLOW TIME STEP   1 STRESS PERIOD   3
    15 TOTAL ITERATIONS
 
 SOLVING FOR HEAD 


     2 CALLS TO PCG ROUTINE FOR TIME STEP   1 IN STRESS PERIOD    3
    21 TOTAL ITERATIONS

 MAXIMUM HEAD CHANGE FOR EACH ITERATION (1 INDICATES THE FIRST INNER ITERATION):

    HEAD CHANGE    HEAD CHANGE    HEAD CHANGE    HEAD CHANGE    HEAD CHANGE 
   LAYER,ROW,COL  LAYER,ROW,COL  LAYER,ROW,COL  LAYER,ROW,COL  LAYER,ROW,COL
 ---------------------------------------------------------------------------
  1  0.1438E-02  0  0.4816E-03  0  0.2212E-03  0  0.1084E-03  0  0.6640E-04
   ( 50,  1, 66)  ( 48,  1, 73)  ( 45,  1, 78)  ( 42,  1, 82)  ( 38,  1, 84)
  0  0.4005E-04  0 -0.2490E-04  0 -0.1781E-04  0 -0.1185E-04  0 -0.8084E-05
   ( 50,  1, 83)  (  1,  1, 82)  (  4,  1, 66)  (  1,  1, 69)  (  2,  1, 59)
  0 -0.5039E-05  0 -0.3294E-05  0 -0.2427E-05  0 -0.1781E-05  0 -0.1486E-05
   (  3,  1, 50)  (  2,  1, 52)  (  7,  1, 41)  (  6,  1, 35)  (  5,  1, 28)
  0 -0.1299E-05  0 -0.1292E-05  0 -0.1243E-05  0 -0.1044E-05  0 -0.9557E-06
   (  2,  1, 31)  (  2,  1,  8)  (  4,  1,  4)  ( 49,  1, 38)  ( 46,  1,  1)
  1 -0.2438E-06
   ( 41,  1,  2)

 MAXIMUM RESIDUAL FOR EACH ITERATION (1 INDICATES THE FIRST INNER ITERATION):

    RESIDUAL       RESIDUAL       RESIDUAL       RESIDUAL       RESIDUAL    
   LAYER,ROW,COL  LAYER,ROW,COL  LAYER,ROW,COL  LAYER,ROW,COL  LAYER,ROW,COL
 ---------------------------------------------------------------------------
  1   10.03      0   6.250      0  -2.482      0  -1.435      0  -1.036    
   ( 50,  1, 68)  ( 50,  1, 59)  ( 50,  1, 74)  ( 50,  1, 79)  ( 50,  1, 57)
  0 -0.6150      0 -0.4565      0 -0.2652      0  0.2020      0  0.1761    
   ( 49,  1, 69)  ( 49,  1, 65)  ( 45,  1, 99)  ( 49,  1, 99)  ( 46,  1, 99)
  0  0.1280      0 -0.9485E-01  0 -0.7968E-01  0  0.5759E-01  0  0.5256E-01
   ( 43,  1, 99)  ( 48,  1, 99)  ( 45,  1, 99)  ( 49,  1, 99)  ( 47,  1, 99)
  0  0.4768E-01  0 -0.4622E-01  0 -0.4805E-01  0  0.3536E-01  0  0.2973E-01
   ( 44,  1, 99)  ( 48,  1, 99)  ( 46,  1, 99)  ( 49,  1, 99)  ( 47,  1, 99)
  1  0.1227E-01
   ( 47,  1, 99)


 FLOW MODEL IS TRANSIENT
 FLOW MODEL CONTAINS CONSTANT-HEAD CELLS


 MAXIMUM STEPSIZE DURING WHICH ANY PARTICLE CANNOT MOVE MORE THAN ONE CELL
 =  9.087    (WHEN MIN. R.F.=1)  AT K=   1, I=   1, J=  99

 MAXIMUM STEPSIZE WHICH MEETS STABILITY CRITERION OF THE ADVECTION TERM
 (FOR PURE FINITE-DIFFERENCE OPTION, MIXELM=0) 
 =  8.870    (WHEN MIN. R.F.=1)  AT K=   1, I=   1, J=  99


 TOTAL NUMBER OF POINT SOURCES/SINKS PRESENT IN THE FLOW MODEL =       100

 MAXIMUM STEPSIZE WHICH MEETS STABILITY CRITERION OF THE SINK & SOURCE TERM
 =  122.8    (WHEN MIN. R.F.=1)  AT K=   1, I=   1, J=   1

 MAXIMUM STEPSIZE WHICH MEETS STABILITY CRITERION OF THE DISPERSION TERM
 =  2.025    (WHEN MIN. R.F.=1)  AT K=   1, I=   1, J=  99
     5 CALLS TO GCG PACKAGE FOR TRANSPORT TIME STEP  20 IN FLOW TIME STEP   1 STRESS PERIOD   3
    15 TOTAL ITERATIONS
 
 SOLVING FOR HEAD 


     2 CALLS TO PCG ROUTINE FOR TIME STEP   1 IN STRESS PERIOD    3
    17 TOTAL ITERATIONS

 MAXIMUM HEAD CHANGE FOR EACH ITERATION (1 INDICATES THE FIRST INNER ITERATION):

    HEAD CHANGE    HEAD CHANGE    HEAD CHANGE    HEAD CHANGE    HEAD CHANGE 
   LAYER,ROW,COL  LAYER,ROW,COL  LAYER,ROW,COL  LAYER,ROW,COL  LAYER,ROW,COL
 ---------------------------------------------------------------------------
  1  0.1429E-02  0  0.4788E-03  0  0.2206E-03  0  0.1085E-03  0  0.6648E-04
   ( 50,  1, 65)  ( 48,  1, 73)  ( 45,  1, 77)  ( 42,  1, 81)  ( 38,  1, 84)
  0  0.4011E-04  0 -0.2454E-04  0 -0.1786E-04  0 -0.1170E-04  0 -0.7474E-05
   ( 50,  1, 83)  (  1,  1, 82)  (  4,  1, 66)  (  1,  1, 69)  (  2,  1, 59)
  0 -0.4950E-05  0 -0.3338E-05  0 -0.2368E-05  0 -0.1630E-05  0 -0.1170E-05
   (  3,  1, 49)  (  2,  1, 52)  (  3,  1, 46)  (  4,  1, 41)  (  4,  1, 34)
  0 -0.9845E-06  1 -0.3055E-06
   (  6,  1,  4)  (  3,  1,  7)

 MAXIMUM RESIDUAL FOR EACH ITERATION (1 INDICATES THE FIRST INNER ITERATION):

    RESIDUAL       RESIDUAL       RESIDUAL       RESIDUAL       RESIDUAL    
   LAYER,ROW,COL  LAYER,ROW,COL  LAYER,ROW,COL  LAYER,ROW,COL  LAYER,ROW,COL
 ---------------------------------------------------------------------------
  1   9.985      0   6.249      0  -2.481      0  -1.430      0  -1.033    
   ( 50,  1, 68)  ( 50,  1, 59)  ( 50,  1, 73)  ( 50,  1, 79)  ( 50,  1, 57)
  0 -0.6113      0 -0.4538      0 -0.2597      0  0.1971      0  0.1718    
   ( 49,  1, 69)  ( 49,  1, 64)  ( 45,  1, 99)  ( 49,  1, 99)  ( 46,  1, 99)
  0  0.1243      0 -0.9062E-01  0 -0.7436E-01  0 -0.5196E-01  0  0.4530E-01
   ( 43,  1, 99)  ( 48,  1, 99)  ( 45,  1, 99)  ( 42,  1, 99)  ( 47,  1, 99)
  0  0.3961E-01  1  0.1514E-01
   ( 44,  1, 99)  ( 44,  1, 99)


 FLOW MODEL IS TRANSIENT
 FLOW MODEL CONTAINS CONSTANT-HEAD CELLS


 MAXIMUM STEPSIZE DURING WHICH ANY PARTICLE CANNOT MOVE MORE THAN ONE CELL
 =  9.092    (WHEN MIN. R.F.=1)  AT K=   1, I=   1, J=  99

 MAXIMUM STEPSIZE WHICH MEETS STABILITY CRITERION OF THE ADVECTION TERM
 (FOR PURE FINITE-DIFFERENCE OPTION, MIXELM=0) 
 =  8.875    (WHEN MIN. R.F.=1)  AT K=   1, I=   1, J=  99


 TOTAL NUMBER OF POINT SOURCES/SINKS PRESENT IN THE FLOW MODEL =       100

 MAXIMUM STEPSIZE WHICH MEETS STABILITY CRITERION OF THE SINK & SOURCE TERM
 =  122.8    (WHEN MIN. R.F.=1)  AT K=   1, I=   1, J=   1

 MAXIMUM STEPSIZE WHICH MEETS STABILITY CRITERION OF THE DISPERSION TERM
 =  2.026    (WHEN MIN. R.F.=1)  AT K=   1, I=   1, J=  99
     5 CALLS TO GCG PACKAGE FOR TRANSPORT TIME STEP  21 IN FLOW TIME STEP   1 STRESS PERIOD   3
    15 TOTAL ITERATIONS
 
 SOLVING FOR HEAD 


     2 CALLS TO PCG ROUTINE FOR TIME STEP   1 IN STRESS PERIOD    3
    21 TOTAL ITERATIONS

 MAXIMUM HEAD CHANGE FOR EACH ITERATION (1 INDICATES THE FIRST INNER ITERATION):

    HEAD CHANGE    HEAD CHANGE    HEAD CHANGE    HEAD CHANGE    HEAD CHANGE 
   LAYER,ROW,COL  LAYER,ROW,COL  LAYER,ROW,COL  LAYER,ROW,COL  LAYER,ROW,COL
 ---------------------------------------------------------------------------
  1  0.1423E-02  0  0.4758E-03  0  0.2199E-03  0  0.1083E-03  0  0.6628E-04
   ( 50,  1, 65)  ( 48,  1, 73)  ( 45,  1, 77)  ( 42,  1, 81)  ( 38,  1, 83)
  0  0.4014E-04  0 -0.2474E-04  0 -0.1762E-04  0 -0.1176E-04  0 -0.7966E-05
   ( 50,  1, 82)  (  1,  1, 82)  (  4,  1, 65)  (  1,  1, 69)  (  2,  1, 59)
  0 -0.4926E-05  0 -0.3148E-05  0 -0.2330E-05  0 -0.1717E-05  0 -0.1436E-05
   (  3,  1, 50)  (  2,  1, 52)  (  7,  1, 41)  (  4,  1, 34)  (  5,  1, 28)
  0 -0.1265E-05  0 -0.1197E-05  0 -0.1257E-05  0 -0.1024E-05  0 -0.8472E-06
   (  4,  1, 20)  (  3,  1, 12)  (  4,  1,  6)  (  5,  1,  2)  ( 46,  1,  1)
  1 -0.2397E-06
   ( 40,  1,  7)

 MAXIMUM RESIDUAL FOR EACH ITERATION (1 INDICATES THE FIRST INNER ITERATION):

    RESIDUAL       RESIDUAL       RESIDUAL       RESIDUAL       RESIDUAL    
   LAYER,ROW,COL  LAYER,ROW,COL  LAYER,ROW,COL  LAYER,ROW,COL  LAYER,ROW,COL
 ---------------------------------------------------------------------------
  1   9.927      0   6.237      0  -2.479      0  -1.429      0  -1.030    
   ( 50,  1, 68)  ( 50,  1, 59)  ( 50,  1, 73)  ( 50,  1, 79)  ( 50,  1, 57)
  0 -0.6113      0 -0.4538      0 -0.2556      0  0.1942      0  0.1702    
   ( 49,  1, 68)  ( 49,  1, 64)  ( 45,  1, 99)  ( 49,  1, 99)  ( 46,  1, 99)
  0  0.1243      0 -0.9113E-01  0 -0.7610E-01  0 -0.5391E-01  0  0.4868E-01
   ( 43,  1, 99)  ( 48,  1, 99)  ( 45,  1, 99)  ( 42,  1, 99)  ( 47,  1, 99)
  0  0.4371E-01  0 -0.4077E-01  0 -0.4422E-01  0  0.3210E-01  0  0.2760E-01
   ( 44,  1, 99)  ( 48,  1, 99)  ( 46,  1, 99)  ( 49,  1, 99)  ( 47,  1, 99)
  1  0.1116E-01
   ( 47,  1, 99)


 FLOW MODEL IS TRANSIENT
 FLOW MODEL CONTAINS CONSTANT-HEAD CELLS


 MAXIMUM STEPSIZE DURING WHICH ANY PARTICLE CANNOT MOVE MORE THAN ONE CELL
 =  9.097    (WHEN MIN. R.F.=1)  AT K=   1, I=   1, J=  99

 MAXIMUM STEPSIZE WHICH MEETS STABILITY CRITERION OF THE ADVECTION TERM
 (FOR PURE FINITE-DIFFERENCE OPTION, MIXELM=0) 
 =  8.879    (WHEN MIN. R.F.=1)  AT K=   1, I=   1, J=  99


 TOTAL NUMBER OF POINT SOURCES/SINKS PRESENT IN THE FLOW MODEL =       100

 MAXIMUM STEPSIZE WHICH MEETS STABILITY CRITERION OF THE SINK & SOURCE TERM
 =  122.8    (WHEN MIN. R.F.=1)  AT K=   1, I=   1, J=   1

 MAXIMUM STEPSIZE WHICH MEETS STABILITY CRITERION OF THE DISPERSION TERM
 =  2.028    (WHEN MIN. R.F.=1)  AT K=   1, I=   1, J=  99
     5 CALLS TO GCG PACKAGE FOR TRANSPORT TIME STEP  22 IN FLOW TIME STEP   1 STRESS PERIOD   3
    15 TOTAL ITERATIONS
 
 SOLVING FOR HEAD 


     2 CALLS TO PCG ROUTINE FOR TIME STEP   1 IN STRESS PERIOD    3
    18 TOTAL ITERATIONS

 MAXIMUM HEAD CHANGE FOR EACH ITERATION (1 INDICATES THE FIRST INNER ITERATION):

    HEAD CHANGE    HEAD CHANGE    HEAD CHANGE    HEAD CHANGE    HEAD CHANGE 
   LAYER,ROW,COL  LAYER,ROW,COL  LAYER,ROW,COL  LAYER,ROW,COL  LAYER,ROW,COL
 ---------------------------------------------------------------------------
  1  0.1416E-02  0  0.4727E-03  0  0.2191E-03  0  0.1083E-03  0  0.6640E-04
   ( 50,  1, 65)  ( 48,  1, 73)  ( 45,  1, 77)  ( 42,  1, 81)  ( 38,  1, 83)
  0  0.4021E-04  0 -0.2424E-04  0 -0.1741E-04  0 -0.1137E-04  0 -0.7440E-05
   ( 50,  1, 82)  (  1,  1, 82)  (  4,  1, 66)  (  1,  1, 69)  (  2,  1, 58)
  0 -0.5022E-05  0 -0.3420E-05  0 -0.2415E-05  0 -0.1682E-05  0 -0.1247E-05
   (  3,  1, 48)  (  2,  1, 52)  (  3,  1, 45)  (  4,  1, 39)  (  5,  1, 32)
  0 -0.1032E-05  0 -0.9682E-06  1 -0.3001E-06
   (  5,  1, 25)  (  2,  1,  7)  ( 20,  1,  3)

 MAXIMUM RESIDUAL FOR EACH ITERATION (1 INDICATES THE FIRST INNER ITERATION):

    RESIDUAL       RESIDUAL       RESIDUAL       RESIDUAL       RESIDUAL    
   LAYER,ROW,COL  LAYER,ROW,COL  LAYER,ROW,COL  LAYER,ROW,COL  LAYER,ROW,COL
 ---------------------------------------------------------------------------
  1   9.864      0   6.209      0  -2.474      0  -1.427      0  -1.028    
   ( 50,  1, 68)  ( 50,  1, 59)  ( 50,  1, 73)  ( 50,  1, 78)  ( 50,  1, 56)
  0 -0.6097      0 -0.4533      0 -0.2505      0  0.1882      0  0.1661    
   ( 49,  1, 68)  ( 49,  1, 64)  ( 45,  1, 99)  ( 49,  1, 99)  ( 46,  1, 99)
  0  0.1234      0 -0.8944E-01  0 -0.7390E-01  0 -0.5282E-01  0  0.4609E-01
   ( 43,  1, 99)  ( 48,  1, 99)  ( 45,  1, 99)  ( 42,  1, 99)  ( 47,  1, 99)
  0  0.4107E-01  0 -0.3619E-01  1 -0.1384E-01
   ( 44,  1, 99)  ( 48,  1, 99)  ( 48,  1, 99)


 FLOW MODEL IS TRANSIENT
 FLOW MODEL CONTAINS CONSTANT-HEAD CELLS


 MAXIMUM STEPSIZE DURING WHICH ANY PARTICLE CANNOT MOVE MORE THAN ONE CELL
 =  9.102    (WHEN MIN. R.F.=1)  AT K=   1, I=   1, J=  99

 MAXIMUM STEPSIZE WHICH MEETS STABILITY CRITERION OF THE ADVECTION TERM
 (FOR PURE FINITE-DIFFERENCE OPTION, MIXELM=0) 
 =  8.884    (WHEN MIN. R.F.=1)  AT K=   1, I=   1, J=  99


 TOTAL NUMBER OF POINT SOURCES/SINKS PRESENT IN THE FLOW MODEL =       100

 MAXIMUM STEPSIZE WHICH MEETS STABILITY CRITERION OF THE SINK & SOURCE TERM
 =  122.8    (WHEN MIN. R.F.=1)  AT K=   1, I=   1, J=   1

 MAXIMUM STEPSIZE WHICH MEETS STABILITY CRITERION OF THE DISPERSION TERM
 =  2.029    (WHEN MIN. R.F.=1)  AT K=   1, I=   1, J=  99
     5 CALLS TO GCG PACKAGE FOR TRANSPORT TIME STEP  23 IN FLOW TIME STEP   1 STRESS PERIOD   3
    15 TOTAL ITERATIONS
 
 SOLVING FOR HEAD 


     2 CALLS TO PCG ROUTINE FOR TIME STEP   1 IN STRESS PERIOD    3
    21 TOTAL ITERATIONS

 MAXIMUM HEAD CHANGE FOR EACH ITERATION (1 INDICATES THE FIRST INNER ITERATION):

    HEAD CHANGE    HEAD CHANGE    HEAD CHANGE    HEAD CHANGE    HEAD CHANGE 
   LAYER,ROW,COL  LAYER,ROW,COL  LAYER,ROW,COL  LAYER,ROW,COL  LAYER,ROW,COL
 ---------------------------------------------------------------------------
  1  0.1408E-02  0  0.4703E-03  0  0.2180E-03  0  0.1078E-03  0  0.6607E-04
   ( 50,  1, 65)  ( 48,  1, 72)  ( 45,  1, 77)  ( 42,  1, 81)  ( 38,  1, 83)
  0  0.4033E-04  0 -0.2377E-04  0 -0.1700E-04  0 -0.1108E-04  0 -0.7570E-05
   ( 50,  1, 82)  (  1,  1, 82)  (  4,  1, 66)  (  1,  1, 69)  (  2,  1, 57)
  0 -0.5155E-05  0 -0.3559E-05  0 -0.2574E-05  0 -0.1850E-05  0 -0.1466E-05
   (  3,  1, 48)  (  2,  1, 52)  (  3,  1, 45)  (  3,  1, 37)  (  4,  1, 29)
  0 -0.1278E-05  0 -0.1236E-05  0 -0.1259E-05  0 -0.1059E-05  0 -0.9525E-06
   (  4,  1, 22)  (  2,  1,  7)  (  2,  1,  4)  ( 49,  1, 38)  ( 46,  1,  1)
  1 -0.2324E-06
   ( 41,  1,  7)

 MAXIMUM RESIDUAL FOR EACH ITERATION (1 INDICATES THE FIRST INNER ITERATION):

    RESIDUAL       RESIDUAL       RESIDUAL       RESIDUAL       RESIDUAL    
   LAYER,ROW,COL  LAYER,ROW,COL  LAYER,ROW,COL  LAYER,ROW,COL  LAYER,ROW,COL
 ---------------------------------------------------------------------------
  1   9.827      0   6.169      0  -2.468      0  -1.430      0  -1.028    
   ( 50,  1, 67)  ( 50,  1, 59)  ( 50,  1, 73)  ( 50,  1, 78)  ( 50,  1, 56)
  0 -0.6078      0 -0.4509      0 -0.2460      0  0.1852      0  0.1645    
   ( 49,  1, 68)  ( 49,  1, 64)  ( 45,  1, 99)  ( 49,  1, 99)  ( 47,  1, 99)
  0  0.1238      0 -0.9084E-01  0 -0.7688E-01  0 -0.5644E-01  0  0.5154E-01
   ( 43,  1, 99)  ( 48,  1, 99)  ( 45,  1, 99)  ( 42,  1, 99)  ( 47,  1, 99)
  0  0.4755E-01  0 -0.4370E-01  0 -0.4775E-01  0 -0.3385E-01  0  0.2868E-01
   ( 44,  1, 99)  ( 48,  1, 99)  ( 46,  1, 99)  ( 43,  1, 99)  ( 47,  1, 99)
  1  0.1132E-01
   ( 47,  1, 99)


 FLOW MODEL IS TRANSIENT
 FLOW MODEL CONTAINS CONSTANT-HEAD CELLS


 MAXIMUM STEPSIZE DURING WHICH ANY PARTICLE CANNOT MOVE MORE THAN ONE CELL
 =  9.107    (WHEN MIN. R.F.=1)  AT K=   1, I=   1, J=  99

 MAXIMUM STEPSIZE WHICH MEETS STABILITY CRITERION OF THE ADVECTION TERM
 (FOR PURE FINITE-DIFFERENCE OPTION, MIXELM=0) 
 =  8.889    (WHEN MIN. R.F.=1)  AT K=   1, I=   1, J=  99


 TOTAL NUMBER OF POINT SOURCES/SINKS PRESENT IN THE FLOW MODEL =       100

 MAXIMUM STEPSIZE WHICH MEETS STABILITY CRITERION OF THE SINK & SOURCE TERM
 =  122.8    (WHEN MIN. R.F.=1)  AT K=   1, I=   1, J=   1

 MAXIMUM STEPSIZE WHICH MEETS STABILITY CRITERION OF THE DISPERSION TERM
 =  2.030    (WHEN MIN. R.F.=1)  AT K=   1, I=   1, J=  99
     5 CALLS TO GCG PACKAGE FOR TRANSPORT TIME STEP  24 IN FLOW TIME STEP   1 STRESS PERIOD   3
    15 TOTAL ITERATIONS
 
 SOLVING FOR HEAD 


     2 CALLS TO PCG ROUTINE FOR TIME STEP   1 IN STRESS PERIOD    3
    20 TOTAL ITERATIONS

 MAXIMUM HEAD CHANGE FOR EACH ITERATION (1 INDICATES THE FIRST INNER ITERATION):

    HEAD CHANGE    HEAD CHANGE    HEAD CHANGE    HEAD CHANGE    HEAD CHANGE 
   LAYER,ROW,COL  LAYER,ROW,COL  LAYER,ROW,COL  LAYER,ROW,COL  LAYER,ROW,COL
 ---------------------------------------------------------------------------
  1  0.1400E-02  0  0.4679E-03  0  0.2173E-03  0  0.1080E-03  0  0.6642E-04
   ( 50,  1, 65)  ( 48,  1, 72)  ( 45,  1, 77)  ( 42,  1, 81)  ( 38,  1, 83)
  0  0.4028E-04  0 -0.2421E-04  0 -0.1719E-04  0 -0.1133E-04  0 -0.7565E-05
   ( 50,  1, 82)  (  1,  1, 82)  (  4,  1, 65)  (  1,  1, 69)  (  2,  1, 58)
  0 -0.5006E-05  0 -0.3276E-05  0 -0.2293E-05  0 -0.1601E-05  0 -0.1198E-05
   (  3,  1, 49)  (  2,  1, 52)  (  3,  1, 46)  (  4,  1, 40)  (  2,  1, 34)
  0 -0.1066E-05  0 -0.1028E-05  0 -0.1039E-05  0 -0.9245E-06  1 -0.2807E-06
   (  6,  1,  4)  (  3,  1,  8)  ( 17,  1,  1)  ( 13,  1,  3)  ( 49,  1,  7)

 MAXIMUM RESIDUAL FOR EACH ITERATION (1 INDICATES THE FIRST INNER ITERATION):

    RESIDUAL       RESIDUAL       RESIDUAL       RESIDUAL       RESIDUAL    
   LAYER,ROW,COL  LAYER,ROW,COL  LAYER,ROW,COL  LAYER,ROW,COL  LAYER,ROW,COL
 ---------------------------------------------------------------------------
  1   9.790      0   6.114      0  -2.455      0  -1.426      0  -1.025    
   ( 50,  1, 67)  ( 50,  1, 59)  ( 50,  1, 73)  ( 50,  1, 78)  ( 50,  1, 56)
  0 -0.6075      0 -0.4484      0 -0.2413      0  0.1813      0  0.1613    
   ( 49,  1, 68)  ( 49,  1, 64)  ( 45,  1, 99)  ( 49,  1, 99)  ( 46,  1, 99)
  0  0.1204      0 -0.8696E-01  0 -0.7239E-01  0 -0.5167E-01  0  0.4532E-01
   ( 43,  1, 99)  ( 48,  1, 99)  ( 45,  1, 99)  ( 42,  1, 99)  ( 47,  1, 99)
  0  0.4044E-01  0 -0.3569E-01  0 -0.4051E-01  0 -0.3001E-01  1 -0.1171E-01
   ( 44,  1, 99)  ( 48,  1, 99)  ( 46,  1, 99)  ( 44,  1, 99)  ( 43,  1, 99)


 FLOW MODEL IS TRANSIENT
 FLOW MODEL CONTAINS CONSTANT-HEAD CELLS


 MAXIMUM STEPSIZE DURING WHICH ANY PARTICLE CANNOT MOVE MORE THAN ONE CELL
 =  9.112    (WHEN MIN. R.F.=1)  AT K=   1, I=   1, J=  99

 MAXIMUM STEPSIZE WHICH MEETS STABILITY CRITERION OF THE ADVECTION TERM
 (FOR PURE FINITE-DIFFERENCE OPTION, MIXELM=0) 
 =  8.894    (WHEN MIN. R.F.=1)  AT K=   1, I=   1, J=  99


 TOTAL NUMBER OF POINT SOURCES/SINKS PRESENT IN THE FLOW MODEL =       100

 MAXIMUM STEPSIZE WHICH MEETS STABILITY CRITERION OF THE SINK & SOURCE TERM
 =  122.8    (WHEN MIN. R.F.=1)  AT K=   1, I=   1, J=   1

 MAXIMUM STEPSIZE WHICH MEETS STABILITY CRITERION OF THE DISPERSION TERM
 =  2.031    (WHEN MIN. R.F.=1)  AT K=   1, I=   1, J=  99
     5 CALLS TO GCG PACKAGE FOR TRANSPORT TIME STEP  25 IN FLOW TIME STEP   1 STRESS PERIOD   3
    15 TOTAL ITERATIONS
 
 SOLVING FOR HEAD 


     2 CALLS TO PCG ROUTINE FOR TIME STEP   1 IN STRESS PERIOD    3
    20 TOTAL ITERATIONS

 MAXIMUM HEAD CHANGE FOR EACH ITERATION (1 INDICATES THE FIRST INNER ITERATION):

    HEAD CHANGE    HEAD CHANGE    HEAD CHANGE    HEAD CHANGE    HEAD CHANGE 
   LAYER,ROW,COL  LAYER,ROW,COL  LAYER,ROW,COL  LAYER,ROW,COL  LAYER,ROW,COL
 ---------------------------------------------------------------------------
  1  0.1391E-02  0  0.4653E-03  0  0.2160E-03  0  0.1074E-03  0  0.6593E-04
   ( 50,  1, 65)  ( 48,  1, 72)  ( 45,  1, 77)  ( 42,  1, 81)  ( 38,  1, 83)
  0  0.4036E-04  0 -0.2400E-04  0 -0.1702E-04  0 -0.1118E-04  0 -0.7497E-05
   ( 50,  1, 82)  (  1,  1, 82)  (  4,  1, 66)  (  1,  1, 69)  (  2,  1, 57)
  0 -0.5096E-05  0 -0.3454E-05  0 -0.2466E-05  0 -0.1744E-05  0 -0.1360E-05
   (  3,  1, 48)  (  2,  1, 52)  (  3,  1, 45)  (  4,  1, 38)  (  4,  1, 29)
  0 -0.1174E-05  0 -0.1150E-05  0 -0.1187E-05  0 -0.9999E-06  1 -0.2998E-06
   (  6,  1,  4)  (  2,  1,  7)  (  2,  1,  4)  ( 49,  1, 38)  ( 49,  1,  6)

 MAXIMUM RESIDUAL FOR EACH ITERATION (1 INDICATES THE FIRST INNER ITERATION):

    RESIDUAL       RESIDUAL       RESIDUAL       RESIDUAL       RESIDUAL    
   LAYER,ROW,COL  LAYER,ROW,COL  LAYER,ROW,COL  LAYER,ROW,COL  LAYER,ROW,COL
 ---------------------------------------------------------------------------
  1   9.746      0   6.111      0  -2.450      0  -1.428      0  -1.024    
   ( 50,  1, 67)  ( 50,  1, 58)  ( 50,  1, 72)  ( 50,  1, 78)  ( 50,  1, 56)
  0 -0.6053      0 -0.4461      0 -0.2365      0  0.1774      0  0.1597    
   ( 49,  1, 68)  ( 49,  1, 63)  ( 45,  1, 99)  ( 49,  1, 99)  ( 47,  1, 99)
  0  0.1204      0 -0.8737E-01  0 -0.7374E-01  0 -0.5396E-01  0  0.4839E-01
   ( 44,  1, 99)  ( 48,  1, 99)  ( 45,  1, 99)  ( 42,  1, 99)  ( 47,  1, 99)
  0  0.4427E-01  0 -0.3971E-01  0 -0.4451E-01  0 -0.3233E-01  1 -0.1267E-01
   ( 44,  1, 99)  ( 48,  1, 99)  ( 46,  1, 99)  ( 43,  1, 99)  ( 43,  1, 99)


 FLOW MODEL IS TRANSIENT
 FLOW MODEL CONTAINS CONSTANT-HEAD CELLS


 MAXIMUM STEPSIZE DURING WHICH ANY PARTICLE CANNOT MOVE MORE THAN ONE CELL
 =  9.117    (WHEN MIN. R.F.=1)  AT K=   1, I=   1, J=  99

 MAXIMUM STEPSIZE WHICH MEETS STABILITY CRITERION OF THE ADVECTION TERM
 (FOR PURE FINITE-DIFFERENCE OPTION, MIXELM=0) 
 =  8.899    (WHEN MIN. R.F.=1)  AT K=   1, I=   1, J=  99


 TOTAL NUMBER OF POINT SOURCES/SINKS PRESENT IN THE FLOW MODEL =       100

 MAXIMUM STEPSIZE WHICH MEETS STABILITY CRITERION OF THE SINK & SOURCE TERM
 =  122.8    (WHEN MIN. R.F.=1)  AT K=   1, I=   1, J=   1

 MAXIMUM STEPSIZE WHICH MEETS STABILITY CRITERION OF THE DISPERSION TERM
 =  2.032    (WHEN MIN. R.F.=1)  AT K=   1, I=   1, J=  99
     5 CALLS TO GCG PACKAGE FOR TRANSPORT TIME STEP  26 IN FLOW TIME STEP   1 STRESS PERIOD   3
    15 TOTAL ITERATIONS
 
 SOLVING FOR HEAD 


     2 CALLS TO PCG ROUTINE FOR TIME STEP   1 IN STRESS PERIOD    3
    20 TOTAL ITERATIONS

 MAXIMUM HEAD CHANGE FOR EACH ITERATION (1 INDICATES THE FIRST INNER ITERATION):

    HEAD CHANGE    HEAD CHANGE    HEAD CHANGE    HEAD CHANGE    HEAD CHANGE 
   LAYER,ROW,COL  LAYER,ROW,COL  LAYER,ROW,COL  LAYER,ROW,COL  LAYER,ROW,COL
 ---------------------------------------------------------------------------
  1  0.1383E-02  0  0.4626E-03  0  0.2153E-03  0  0.1072E-03  0  0.6589E-04
   ( 50,  1, 64)  ( 48,  1, 72)  ( 45,  1, 76)  ( 42,  1, 80)  ( 38,  1, 83)
  0  0.4035E-04  0 -0.2385E-04  0 -0.1690E-04  0 -0.1113E-04  0 -0.7464E-05
   ( 50,  1, 82)  (  1,  1, 82)  (  3,  1, 65)  (  1,  1, 69)  (  2,  1, 57)
  0 -0.4989E-05  0 -0.3341E-05  0 -0.2388E-05  0 -0.1676E-05  0 -0.1290E-05
   (  3,  1, 48)  (  2,  1, 51)  (  3,  1, 45)  (  4,  1, 39)  (  4,  1, 29)
  0 -0.1122E-05  0 -0.1092E-05  0 -0.1116E-05  0 -0.9537E-06  1 -0.2856E-06
   (  6,  1,  4)  (  2,  1,  7)  (  3,  1,  4)  (  4,  1,  1)  ( 49,  1,  6)

 MAXIMUM RESIDUAL FOR EACH ITERATION (1 INDICATES THE FIRST INNER ITERATION):

    RESIDUAL       RESIDUAL       RESIDUAL       RESIDUAL       RESIDUAL    
   LAYER,ROW,COL  LAYER,ROW,COL  LAYER,ROW,COL  LAYER,ROW,COL  LAYER,ROW,COL
 ---------------------------------------------------------------------------
  1   9.694      0   6.108      0  -2.448      0  -1.423      0  -1.022    
   ( 50,  1, 67)  ( 50,  1, 58)  ( 50,  1, 72)  ( 50,  1, 78)  ( 50,  1, 56)
  0 -0.6022      0 -0.4451      0 -0.2323      0  0.1745      0  0.1565    
   ( 49,  1, 68)  ( 49,  1, 63)  ( 45,  1, 99)  ( 49,  1, 99)  ( 47,  1, 99)
  0  0.1179      0 -0.8539E-01  0 -0.7191E-01  0 -0.5226E-01  0  0.4624E-01
   ( 43,  1, 99)  ( 48,  1, 99)  ( 45,  1, 99)  ( 42,  1, 99)  ( 47,  1, 99)
  0  0.4179E-01  0 -0.3724E-01  0 -0.4200E-01  0 -0.3090E-01  1 -0.1213E-01
   ( 44,  1, 99)  ( 48,  1, 99)  ( 46,  1, 99)  ( 43,  1, 99)  ( 43,  1, 99)


 FLOW MODEL IS TRANSIENT
 FLOW MODEL CONTAINS CONSTANT-HEAD CELLS


 MAXIMUM STEPSIZE DURING WHICH ANY PARTICLE CANNOT MOVE MORE THAN ONE CELL
 =  9.122    (WHEN MIN. R.F.=1)  AT K=   1, I=   1, J=  99

 MAXIMUM STEPSIZE WHICH MEETS STABILITY CRITERION OF THE ADVECTION TERM
 (FOR PURE FINITE-DIFFERENCE OPTION, MIXELM=0) 
 =  8.903    (WHEN MIN. R.F.=1)  AT K=   1, I=   1, J=  99


 TOTAL NUMBER OF POINT SOURCES/SINKS PRESENT IN THE FLOW MODEL =       100

 MAXIMUM STEPSIZE WHICH MEETS STABILITY CRITERION OF THE SINK & SOURCE TERM
 =  122.8    (WHEN MIN. R.F.=1)  AT K=   1, I=   1, J=   1

 MAXIMUM STEPSIZE WHICH MEETS STABILITY CRITERION OF THE DISPERSION TERM
 =  2.033    (WHEN MIN. R.F.=1)  AT K=   1, I=   1, J=  99
     5 CALLS TO GCG PACKAGE FOR TRANSPORT TIME STEP  27 IN FLOW TIME STEP   1 STRESS PERIOD   3
    15 TOTAL ITERATIONS
 
 SOLVING FOR HEAD 


     2 CALLS TO PCG ROUTINE FOR TIME STEP   1 IN STRESS PERIOD    3
    20 TOTAL ITERATIONS

 MAXIMUM HEAD CHANGE FOR EACH ITERATION (1 INDICATES THE FIRST INNER ITERATION):

    HEAD CHANGE    HEAD CHANGE    HEAD CHANGE    HEAD CHANGE    HEAD CHANGE 
   LAYER,ROW,COL  LAYER,ROW,COL  LAYER,ROW,COL  LAYER,ROW,COL  LAYER,ROW,COL
 ---------------------------------------------------------------------------
  1  0.1377E-02  0  0.4599E-03  0  0.2146E-03  0  0.1071E-03  0  0.6582E-04
   ( 50,  1, 64)  ( 48,  1, 72)  ( 45,  1, 76)  ( 42,  1, 80)  ( 38,  1, 83)
  0  0.4032E-04  0 -0.2371E-04  0 -0.1683E-04  0 -0.1104E-04  0 -0.7400E-05
   ( 50,  1, 82)  (  1,  1, 82)  (  3,  1, 65)  (  1,  1, 69)  (  2,  1, 57)
  0 -0.4972E-05  0 -0.3335E-05  0 -0.2356E-05  0 -0.1639E-05  0 -0.1256E-05
   (  3,  1, 48)  (  2,  1, 51)  (  3,  1, 45)  (  4,  1, 39)  (  4,  1, 29)
  0 -0.1079E-05  0 -0.1047E-05  0 -0.1075E-05  0 -0.9314E-06  1 -0.2768E-06
   (  6,  1,  4)  (  2,  1,  7)  (  3,  1,  4)  (  4,  1,  1)  ( 49,  1,  6)

 MAXIMUM RESIDUAL FOR EACH ITERATION (1 INDICATES THE FIRST INNER ITERATION):

    RESIDUAL       RESIDUAL       RESIDUAL       RESIDUAL       RESIDUAL    
   LAYER,ROW,COL  LAYER,ROW,COL  LAYER,ROW,COL  LAYER,ROW,COL  LAYER,ROW,COL
 ---------------------------------------------------------------------------
  1   9.636      0   6.091      0  -2.444      0  -1.420      0  -1.019    
   ( 50,  1, 67)  ( 50,  1, 58)  ( 50,  1, 72)  ( 50,  1, 78)  ( 50,  1, 56)
  0 -0.6022      0 -0.4444      0 -0.2277      0  0.1709      0  0.1547    
   ( 49,  1, 67)  ( 49,  1, 63)  ( 45,  1, 99)  ( 49,  1, 99)  ( 47,  1, 99)
  0  0.1168      0 -0.8386E-01  0 -0.7051E-01  0 -0.5109E-01  0  0.4478E-01
   ( 44,  1, 99)  ( 48,  1, 99)  ( 45,  1, 99)  ( 42,  1, 99)  ( 47,  1, 99)
  0  0.4011E-01  0 -0.3542E-01  0 -0.4019E-01  0 -0.2990E-01  1 -0.1174E-01
   ( 44,  1, 99)  ( 48,  1, 99)  ( 46,  1, 99)  ( 43,  1, 99)  ( 43,  1, 99)


 FLOW MODEL IS TRANSIENT
 FLOW MODEL CONTAINS CONSTANT-HEAD CELLS


 MAXIMUM STEPSIZE DURING WHICH ANY PARTICLE CANNOT MOVE MORE THAN ONE CELL
 =  9.127    (WHEN MIN. R.F.=1)  AT K=   1, I=   1, J=  99

 MAXIMUM STEPSIZE WHICH MEETS STABILITY CRITERION OF THE ADVECTION TERM
 (FOR PURE FINITE-DIFFERENCE OPTION, MIXELM=0) 
 =  8.908    (WHEN MIN. R.F.=1)  AT K=   1, I=   1, J=  99


 TOTAL NUMBER OF POINT SOURCES/SINKS PRESENT IN THE FLOW MODEL =       100

 MAXIMUM STEPSIZE WHICH MEETS STABILITY CRITERION OF THE SINK & SOURCE TERM
 =  122.8    (WHEN MIN. R.F.=1)  AT K=   1, I=   1, J=   1

 MAXIMUM STEPSIZE WHICH MEETS STABILITY CRITERION OF THE DISPERSION TERM
 =  2.034    (WHEN MIN. R.F.=1)  AT K=   1, I=   1, J=  99
     5 CALLS TO GCG PACKAGE FOR TRANSPORT TIME STEP  28 IN FLOW TIME STEP   1 STRESS PERIOD   3
    15 TOTAL ITERATIONS
 
 SOLVING FOR HEAD 


     2 CALLS TO PCG ROUTINE FOR TIME STEP   1 IN STRESS PERIOD    3
    21 TOTAL ITERATIONS

 MAXIMUM HEAD CHANGE FOR EACH ITERATION (1 INDICATES THE FIRST INNER ITERATION):

    HEAD CHANGE    HEAD CHANGE    HEAD CHANGE    HEAD CHANGE    HEAD CHANGE 
   LAYER,ROW,COL  LAYER,ROW,COL  LAYER,ROW,COL  LAYER,ROW,COL  LAYER,ROW,COL
 ---------------------------------------------------------------------------
  1  0.1371E-02  0  0.4571E-03  0  0.2139E-03  0  0.1070E-03  0  0.6582E-04
   ( 50,  1, 64)  ( 48,  1, 72)  ( 45,  1, 76)  ( 42,  1, 80)  ( 38,  1, 82)
  0  0.4034E-04  0 -0.2376E-04  0 -0.1685E-04  0 -0.1109E-04  0 -0.7422E-05
   ( 50,  1, 81)  (  1,  1, 82)  (  3,  1, 65)  (  1,  1, 69)  (  2,  1, 56)
  0 -0.5021E-05  0 -0.3422E-05  0 -0.2454E-05  0 -0.1751E-05  0 -0.1394E-05
   (  3,  1, 48)  (  2,  1, 51)  (  3,  1, 45)  (  4,  1, 38)  (  4,  1, 29)
  0 -0.1262E-05  0 -0.1234E-05  0 -0.1233E-05  0 -0.1028E-05  0 -0.9219E-06
   (  6,  1,  4)  (  2,  1,  7)  (  3,  1,  4)  ( 49,  1, 37)  ( 46,  1,  1)
  1 -0.2364E-06
   ( 31,  1,  8)

 MAXIMUM RESIDUAL FOR EACH ITERATION (1 INDICATES THE FIRST INNER ITERATION):

    RESIDUAL       RESIDUAL       RESIDUAL       RESIDUAL       RESIDUAL    
   LAYER,ROW,COL  LAYER,ROW,COL  LAYER,ROW,COL  LAYER,ROW,COL  LAYER,ROW,COL
 ---------------------------------------------------------------------------
  1   9.589      0   6.064      0  -2.438      0  -1.420      0  -1.017    
   ( 50,  1, 66)  ( 50,  1, 58)  ( 50,  1, 72)  ( 50,  1, 77)  ( 50,  1, 55)
  0 -0.6014      0 -0.4429      0 -0.2236      0  0.1676      0  0.1534    
   ( 49,  1, 67)  ( 49,  1, 63)  ( 45,  1, 99)  ( 49,  1, 99)  ( 47,  1, 99)
  0  0.1167      0 -0.8440E-01  0 -0.7234E-01  0 -0.5349E-01  0  0.4863E-01
   ( 44,  1, 99)  ( 48,  1, 99)  ( 45,  1, 99)  ( 42,  1, 99)  ( 47,  1, 99)
  0  0.4486E-01  0 -0.4037E-01  0 -0.4515E-01  0 -0.3291E-01  0  0.2740E-01
   ( 44,  1, 99)  ( 48,  1, 99)  ( 46,  1, 99)  ( 43,  1, 99)  ( 47,  1, 99)
  1  0.1068E-01
   ( 47,  1, 99)


 FLOW MODEL IS TRANSIENT
 FLOW MODEL CONTAINS CONSTANT-HEAD CELLS


 MAXIMUM STEPSIZE DURING WHICH ANY PARTICLE CANNOT MOVE MORE THAN ONE CELL
 =  9.132    (WHEN MIN. R.F.=1)  AT K=   1, I=   1, J=  99

 MAXIMUM STEPSIZE WHICH MEETS STABILITY CRITERION OF THE ADVECTION TERM
 (FOR PURE FINITE-DIFFERENCE OPTION, MIXELM=0) 
 =  8.913    (WHEN MIN. R.F.=1)  AT K=   1, I=   1, J=  99


 TOTAL NUMBER OF POINT SOURCES/SINKS PRESENT IN THE FLOW MODEL =       100

 MAXIMUM STEPSIZE WHICH MEETS STABILITY CRITERION OF THE SINK & SOURCE TERM
 =  122.8    (WHEN MIN. R.F.=1)  AT K=   1, I=   1, J=   1

 MAXIMUM STEPSIZE WHICH MEETS STABILITY CRITERION OF THE DISPERSION TERM
 =  2.035    (WHEN MIN. R.F.=1)  AT K=   1, I=   1, J=  99
     5 CALLS TO GCG PACKAGE FOR TRANSPORT TIME STEP  29 IN FLOW TIME STEP   1 STRESS PERIOD   3
    15 TOTAL ITERATIONS
 
 SOLVING FOR HEAD 


     2 CALLS TO PCG ROUTINE FOR TIME STEP   1 IN STRESS PERIOD    3
    20 TOTAL ITERATIONS

 MAXIMUM HEAD CHANGE FOR EACH ITERATION (1 INDICATES THE FIRST INNER ITERATION):

    HEAD CHANGE    HEAD CHANGE    HEAD CHANGE    HEAD CHANGE    HEAD CHANGE 
   LAYER,ROW,COL  LAYER,ROW,COL  LAYER,ROW,COL  LAYER,ROW,COL  LAYER,ROW,COL
 ---------------------------------------------------------------------------
  1  0.1363E-02  0  0.4547E-03  0  0.2131E-03  0  0.1072E-03  0  0.6621E-04
   ( 50,  1, 64)  ( 48,  1, 71)  ( 45,  1, 76)  ( 42,  1, 80)  ( 38,  1, 82)
  0  0.4031E-04  0 -0.2387E-04  0 -0.1695E-04  0 -0.1116E-04  0 -0.7383E-05
   ( 50,  1, 81)  (  1,  1, 82)  (  4,  1, 65)  (  1,  1, 68)  (  2,  1, 56)
  0 -0.5036E-05  0 -0.3306E-05  0 -0.2300E-05  0 -0.1609E-05  0 -0.1190E-05
   (  3,  1, 48)  (  2,  1, 51)  (  3,  1, 45)  (  4,  1, 40)  (  3,  1, 33)
  0 -0.1065E-05  0 -0.1034E-05  0 -0.1039E-05  0 -0.9363E-06  1 -0.2762E-06
   (  6,  1,  4)  (  2,  1,  6)  ( 19,  1,  2)  ( 13,  1,  3)  ( 49,  1,  6)

 MAXIMUM RESIDUAL FOR EACH ITERATION (1 INDICATES THE FIRST INNER ITERATION):

    RESIDUAL       RESIDUAL       RESIDUAL       RESIDUAL       RESIDUAL    
   LAYER,ROW,COL  LAYER,ROW,COL  LAYER,ROW,COL  LAYER,ROW,COL  LAYER,ROW,COL
 ---------------------------------------------------------------------------
  1   9.559      0   6.019      0  -2.428      0  -1.417      0  -1.015    
   ( 50,  1, 66)  ( 50,  1, 58)  ( 50,  1, 72)  ( 50,  1, 77)  ( 50,  1, 55)
  0 -0.6009      0 -0.4416      0 -0.2184      0  0.1627      0  0.1517    
   ( 49,  1, 67)  ( 49,  1, 63)  ( 45,  1, 99)  ( 49,  1, 99)  ( 47,  1, 99)
  0  0.1146      0 -0.8148E-01  0 -0.6877E-01  0 -0.4968E-01  0  0.4359E-01
   ( 44,  1, 99)  ( 48,  1, 99)  ( 45,  1, 99)  ( 42,  1, 99)  ( 47,  1, 99)
  0  0.3914E-01  0 -0.3387E-01  0 -0.3916E-01  0 -0.2973E-01  1 -0.1156E-01
   ( 44,  1, 99)  ( 48,  1, 99)  ( 46,  1, 99)  ( 44,  1, 99)  ( 43,  1, 99)


 FLOW MODEL IS TRANSIENT
 FLOW MODEL CONTAINS CONSTANT-HEAD CELLS


 MAXIMUM STEPSIZE DURING WHICH ANY PARTICLE CANNOT MOVE MORE THAN ONE CELL
 =  9.137    (WHEN MIN. R.F.=1)  AT K=   1, I=   1, J=  99

 MAXIMUM STEPSIZE WHICH MEETS STABILITY CRITERION OF THE ADVECTION TERM
 (FOR PURE FINITE-DIFFERENCE OPTION, MIXELM=0) 
 =  8.918    (WHEN MIN. R.F.=1)  AT K=   1, I=   1, J=  99


 TOTAL NUMBER OF POINT SOURCES/SINKS PRESENT IN THE FLOW MODEL =       100

 MAXIMUM STEPSIZE WHICH MEETS STABILITY CRITERION OF THE SINK & SOURCE TERM
 =  122.8    (WHEN MIN. R.F.=1)  AT K=   1, I=   1, J=   1

 MAXIMUM STEPSIZE WHICH MEETS STABILITY CRITERION OF THE DISPERSION TERM
 =  2.036    (WHEN MIN. R.F.=1)  AT K=   1, I=   1, J=  99
     5 CALLS TO GCG PACKAGE FOR TRANSPORT TIME STEP  30 IN FLOW TIME STEP   1 STRESS PERIOD   3
    15 TOTAL ITERATIONS
 
 SOLVING FOR HEAD 


     2 CALLS TO PCG ROUTINE FOR TIME STEP   1 IN STRESS PERIOD    3
    20 TOTAL ITERATIONS

 MAXIMUM HEAD CHANGE FOR EACH ITERATION (1 INDICATES THE FIRST INNER ITERATION):

    HEAD CHANGE    HEAD CHANGE    HEAD CHANGE    HEAD CHANGE    HEAD CHANGE 
   LAYER,ROW,COL  LAYER,ROW,COL  LAYER,ROW,COL  LAYER,ROW,COL  LAYER,ROW,COL
 ---------------------------------------------------------------------------
  1  0.1355E-02  0  0.4525E-03  0  0.2122E-03  0  0.1067E-03  0  0.6576E-04
   ( 50,  1, 64)  ( 48,  1, 71)  ( 45,  1, 76)  ( 42,  1, 80)  ( 38,  1, 82)
  0  0.4041E-04  0 -0.2360E-04  0 -0.1662E-04  0 -0.1085E-04  0 -0.7325E-05
   ( 50,  1, 81)  (  1,  1, 82)  (  3,  1, 65)  (  1,  1, 68)  (  2,  1, 56)
  0 -0.4999E-05  0 -0.3372E-05  0 -0.2333E-05  0 -0.1609E-05  0 -0.1236E-05
   (  3,  1, 47)  (  2,  1, 51)  (  3,  1, 44)  (  4,  1, 38)  (  4,  1, 28)
  0 -0.1055E-05  0 -0.1023E-05  0 -0.1057E-05  0 -0.9271E-06  1 -0.2709E-06
   (  6,  1,  4)  (  2,  1,  7)  (  3,  1,  4)  (  4,  1,  1)  ( 49,  1,  6)

 MAXIMUM RESIDUAL FOR EACH ITERATION (1 INDICATES THE FIRST INNER ITERATION):

    RESIDUAL       RESIDUAL       RESIDUAL       RESIDUAL       RESIDUAL    
   LAYER,ROW,COL  LAYER,ROW,COL  LAYER,ROW,COL  LAYER,ROW,COL  LAYER,ROW,COL
 ---------------------------------------------------------------------------
  1   9.519      0   5.963      0  -2.416      0  -1.418      0  -1.015    
   ( 50,  1, 66)  ( 50,  1, 58)  ( 50,  1, 72)  ( 50,  1, 77)  ( 50,  1, 55)
  0 -0.5984      0 -0.4394      0 -0.2140      0  0.1583      0  0.1495    
   ( 49,  1, 67)  ( 49,  1, 63)  ( 45,  1, 99)  ( 49,  1, 99)  ( 47,  1, 99)
  0  0.1150      0 -0.8037E-01  0 -0.6785E-01  0 -0.4939E-01  0  0.4296E-01
   ( 44,  1, 99)  ( 48,  1, 99)  ( 45,  1, 99)  ( 42,  1, 99)  ( 47,  1, 99)
  0  0.3846E-01  0 -0.3331E-01  0 -0.3838E-01  0 -0.2912E-01  1 -0.1139E-01
   ( 44,  1, 99)  ( 48,  1, 99)  ( 46,  1, 99)  ( 43,  1, 99)  ( 43,  1, 99)


 FLOW MODEL IS TRANSIENT
 FLOW MODEL CONTAINS CONSTANT-HEAD CELLS


 MAXIMUM STEPSIZE DURING WHICH ANY PARTICLE CANNOT MOVE MORE THAN ONE CELL
 =  9.142    (WHEN MIN. R.F.=1)  AT K=   1, I=   1, J=  99

 MAXIMUM STEPSIZE WHICH MEETS STABILITY CRITERION OF THE ADVECTION TERM
 (FOR PURE FINITE-DIFFERENCE OPTION, MIXELM=0) 
 =  8.922    (WHEN MIN. R.F.=1)  AT K=   1, I=   1, J=  99


 TOTAL NUMBER OF POINT SOURCES/SINKS PRESENT IN THE FLOW MODEL =       100

 MAXIMUM STEPSIZE WHICH MEETS STABILITY CRITERION OF THE SINK & SOURCE TERM
 =  122.8    (WHEN MIN. R.F.=1)  AT K=   1, I=   1, J=   1

 MAXIMUM STEPSIZE WHICH MEETS STABILITY CRITERION OF THE DISPERSION TERM
 =  2.037    (WHEN MIN. R.F.=1)  AT K=   1, I=   1, J=  99
     5 CALLS TO GCG PACKAGE FOR TRANSPORT TIME STEP  31 IN FLOW TIME STEP   1 STRESS PERIOD   3
    15 TOTAL ITERATIONS
 
 SOLVING FOR HEAD 


     2 CALLS TO PCG ROUTINE FOR TIME STEP   1 IN STRESS PERIOD    3
    18 TOTAL ITERATIONS

 MAXIMUM HEAD CHANGE FOR EACH ITERATION (1 INDICATES THE FIRST INNER ITERATION):

    HEAD CHANGE    HEAD CHANGE    HEAD CHANGE    HEAD CHANGE    HEAD CHANGE 
   LAYER,ROW,COL  LAYER,ROW,COL  LAYER,ROW,COL  LAYER,ROW,COL  LAYER,ROW,COL
 ---------------------------------------------------------------------------
  1  0.1347E-02  0  0.4501E-03  0  0.2112E-03  0  0.1065E-03  0  0.6577E-04
   ( 50,  1, 64)  ( 48,  1, 71)  ( 45,  1, 76)  ( 42,  1, 80)  ( 38,  1, 82)
  0  0.4041E-04  0 -0.2346E-04  0 -0.1646E-04  0 -0.1082E-04  0 -0.7316E-05
   ( 50,  1, 81)  (  1,  1, 82)  (  3,  1, 64)  (  1,  1, 68)  (  2,  1, 56)
  0 -0.4880E-05  0 -0.3253E-05  0 -0.2259E-05  0 -0.1552E-05  0 -0.1184E-05
   (  3,  1, 47)  (  2,  1, 51)  (  3,  1, 44)  (  4,  1, 38)  (  4,  1, 28)
  0 -0.1022E-05  0 -0.9845E-06  1 -0.2653E-06
   (  6,  1,  4)  (  2,  1,  7)  (  4,  1, 71)

 MAXIMUM RESIDUAL FOR EACH ITERATION (1 INDICATES THE FIRST INNER ITERATION):

    RESIDUAL       RESIDUAL       RESIDUAL       RESIDUAL       RESIDUAL    
   LAYER,ROW,COL  LAYER,ROW,COL  LAYER,ROW,COL  LAYER,ROW,COL  LAYER,ROW,COL
 ---------------------------------------------------------------------------
  1   9.473      0   5.971      0  -2.414      0  -1.415      0  -1.013    
   ( 50,  1, 66)  ( 50,  1, 57)  ( 50,  1, 71)  ( 50,  1, 77)  ( 50,  1, 55)
  0 -0.5956      0 -0.4369      0 -0.2097      0  0.1561      0  0.1467    
   ( 49,  1, 67)  ( 49,  1, 62)  ( 45,  1, 99)  ( 49,  1, 99)  ( 47,  1, 99)
  0  0.1125      0 -0.7885E-01  0 -0.6645E-01  0 -0.4812E-01  0  0.4152E-01
   ( 44,  1, 99)  ( 48,  1, 99)  ( 45,  1, 99)  ( 42,  1, 99)  ( 47,  1, 99)
  0  0.3677E-01  0 -0.3162E-01  1 -0.1172E-01
   ( 44,  1, 99)  ( 48,  1, 99)  ( 48,  1, 99)


 FLOW MODEL IS TRANSIENT
 FLOW MODEL CONTAINS CONSTANT-HEAD CELLS


 MAXIMUM STEPSIZE DURING WHICH ANY PARTICLE CANNOT MOVE MORE THAN ONE CELL
 =  9.147    (WHEN MIN. R.F.=1)  AT K=   1, I=   1, J=  99

 MAXIMUM STEPSIZE WHICH MEETS STABILITY CRITERION OF THE ADVECTION TERM
 (FOR PURE FINITE-DIFFERENCE OPTION, MIXELM=0) 
 =  8.927    (WHEN MIN. R.F.=1)  AT K=   1, I=   1, J=  99


 TOTAL NUMBER OF POINT SOURCES/SINKS PRESENT IN THE FLOW MODEL =       100

 MAXIMUM STEPSIZE WHICH MEETS STABILITY CRITERION OF THE SINK & SOURCE TERM
 =  122.8    (WHEN MIN. R.F.=1)  AT K=   1, I=   1, J=   1

 MAXIMUM STEPSIZE WHICH MEETS STABILITY CRITERION OF THE DISPERSION TERM
 =  2.038    (WHEN MIN. R.F.=1)  AT K=   1, I=   1, J=  99
     5 CALLS TO GCG PACKAGE FOR TRANSPORT TIME STEP  32 IN FLOW TIME STEP   1 STRESS PERIOD   3
    15 TOTAL ITERATIONS
 
 SOLVING FOR HEAD 


     2 CALLS TO PCG ROUTINE FOR TIME STEP   1 IN STRESS PERIOD    3
    18 TOTAL ITERATIONS

 MAXIMUM HEAD CHANGE FOR EACH ITERATION (1 INDICATES THE FIRST INNER ITERATION):

    HEAD CHANGE    HEAD CHANGE    HEAD CHANGE    HEAD CHANGE    HEAD CHANGE 
   LAYER,ROW,COL  LAYER,ROW,COL  LAYER,ROW,COL  LAYER,ROW,COL  LAYER,ROW,COL
 ---------------------------------------------------------------------------
  1  0.1341E-02  0  0.4476E-03  0  0.2104E-03  0  0.1063E-03  0  0.6573E-04
   ( 50,  1, 63)  ( 48,  1, 71)  ( 45,  1, 75)  ( 42,  1, 80)  ( 38,  1, 82)
  0  0.4037E-04  0 -0.2320E-04  0 -0.1649E-04  0 -0.1066E-04  0 -0.7232E-05
   ( 50,  1, 81)  (  1,  1, 82)  (  3,  1, 65)  (  1,  1, 68)  (  2,  1, 55)
  0 -0.4955E-05  0 -0.3324E-05  0 -0.2289E-05  0 -0.1561E-05  0 -0.1198E-05
   (  3,  1, 47)  (  2,  1, 51)  (  3,  1, 44)  (  4,  1, 38)  (  4,  1, 28)
  0 -0.1026E-05  0 -0.9955E-06  1 -0.2620E-06
   (  6,  1,  4)  (  2,  1,  6)  (  4,  1, 71)

 MAXIMUM RESIDUAL FOR EACH ITERATION (1 INDICATES THE FIRST INNER ITERATION):

    RESIDUAL       RESIDUAL       RESIDUAL       RESIDUAL       RESIDUAL    
   LAYER,ROW,COL  LAYER,ROW,COL  LAYER,ROW,COL  LAYER,ROW,COL  LAYER,ROW,COL
 ---------------------------------------------------------------------------
  1   9.423      0   5.967      0  -2.411      0  -1.411      0  -1.010    
   ( 50,  1, 66)  ( 50,  1, 57)  ( 50,  1, 71)  ( 50,  1, 77)  ( 50,  1, 55)
  0 -0.5947      0 -0.4364      0  0.2065      0 -0.1521      0  0.1455    
   ( 49,  1, 66)  ( 49,  1, 62)  ( 50,  1, 54)  ( 42,  1, 99)  ( 47,  1, 99)
  0  0.1128      0 -0.7794E-01  0 -0.6590E-01  0 -0.4781E-01  0  0.4139E-01
   ( 44,  1, 99)  ( 48,  1, 99)  ( 45,  1, 99)  ( 42,  1, 99)  ( 47,  1, 99)
  0  0.3662E-01  0 -0.3158E-01  1 -0.1170E-01
   ( 44,  1, 99)  ( 48,  1, 99)  ( 48,  1, 99)


 FLOW MODEL IS TRANSIENT
 FLOW MODEL CONTAINS CONSTANT-HEAD CELLS


 MAXIMUM STEPSIZE DURING WHICH ANY PARTICLE CANNOT MOVE MORE THAN ONE CELL
 =  9.152    (WHEN MIN. R.F.=1)  AT K=   1, I=   1, J=  99

 MAXIMUM STEPSIZE WHICH MEETS STABILITY CRITERION OF THE ADVECTION TERM
 (FOR PURE FINITE-DIFFERENCE OPTION, MIXELM=0) 
 =  8.932    (WHEN MIN. R.F.=1)  AT K=   1, I=   1, J=  99


 TOTAL NUMBER OF POINT SOURCES/SINKS PRESENT IN THE FLOW MODEL =       100

 MAXIMUM STEPSIZE WHICH MEETS STABILITY CRITERION OF THE SINK & SOURCE TERM
 =  122.8    (WHEN MIN. R.F.=1)  AT K=   1, I=   1, J=   1

 MAXIMUM STEPSIZE WHICH MEETS STABILITY CRITERION OF THE DISPERSION TERM
 =  2.040    (WHEN MIN. R.F.=1)  AT K=   1, I=   1, J=  99
     5 CALLS TO GCG PACKAGE FOR TRANSPORT TIME STEP  33 IN FLOW TIME STEP   1 STRESS PERIOD   3
    15 TOTAL ITERATIONS
 
 SOLVING FOR HEAD 


     2 CALLS TO PCG ROUTINE FOR TIME STEP   1 IN STRESS PERIOD    3
    21 TOTAL ITERATIONS

 MAXIMUM HEAD CHANGE FOR EACH ITERATION (1 INDICATES THE FIRST INNER ITERATION):

    HEAD CHANGE    HEAD CHANGE    HEAD CHANGE    HEAD CHANGE    HEAD CHANGE 
   LAYER,ROW,COL  LAYER,ROW,COL  LAYER,ROW,COL  LAYER,ROW,COL  LAYER,ROW,COL
 ---------------------------------------------------------------------------
  1  0.1335E-02  0  0.4450E-03  0  0.2098E-03  0  0.1061E-03  0  0.6566E-04
   ( 50,  1, 63)  ( 48,  1, 71)  ( 45,  1, 75)  ( 42,  1, 79)  ( 38,  1, 82)
  0  0.4032E-04  0 -0.2313E-04  0 -0.1639E-04  0 -0.1067E-04  0 -0.7333E-05
   ( 50,  1, 81)  (  1,  1, 82)  (  3,  1, 64)  (  1,  1, 68)  (  2,  1, 55)
  0 -0.5010E-05  0 -0.3392E-05  0 -0.2403E-05  0 -0.1700E-05  0 -0.1374E-05
   (  3,  1, 47)  (  2,  1, 50)  (  3,  1, 44)  (  4,  1, 38)  (  4,  1, 28)
  0 -0.1258E-05  0 -0.1245E-05  0 -0.1226E-05  0 -0.1019E-05  0 -0.9097E-06
   (  6,  1,  4)  (  2,  1,  6)  (  4,  1,  4)  ( 14,  1,  4)  ( 49,  1, 14)
  1 -0.2398E-06
   ( 32,  1,  8)

 MAXIMUM RESIDUAL FOR EACH ITERATION (1 INDICATES THE FIRST INNER ITERATION):

    RESIDUAL       RESIDUAL       RESIDUAL       RESIDUAL       RESIDUAL    
   LAYER,ROW,COL  LAYER,ROW,COL  LAYER,ROW,COL  LAYER,ROW,COL  LAYER,ROW,COL
 ---------------------------------------------------------------------------
  1   9.363      0   5.950      0  -2.405      0  -1.407      0  -1.008    
   ( 50,  1, 66)  ( 50,  1, 57)  ( 50,  1, 71)  ( 50,  1, 77)  ( 50,  1, 55)
  0 -0.5937      0 -0.4356      0  0.2047      0 -0.1504      0  0.1443    
   ( 49,  1, 66)  ( 49,  1, 62)  ( 50,  1, 54)  ( 42,  1, 99)  ( 47,  1, 99)
  0  0.1127      0 -0.7880E-01  0 -0.6829E-01  0 -0.5094E-01  0  0.4625E-01
   ( 44,  1, 99)  ( 48,  1, 99)  ( 45,  1, 99)  ( 42,  1, 99)  ( 47,  1, 99)
  0  0.4257E-01  0 -0.3794E-01  0 -0.4271E-01  0 -0.3187E-01  0  0.2636E-01
   ( 44,  1, 99)  ( 48,  1, 99)  ( 46,  1, 99)  ( 43,  1, 99)  ( 47,  1, 99)
  1  0.1021E-01
   ( 47,  1, 99)


 FLOW MODEL IS TRANSIENT
 FLOW MODEL CONTAINS CONSTANT-HEAD CELLS


 MAXIMUM STEPSIZE DURING WHICH ANY PARTICLE CANNOT MOVE MORE THAN ONE CELL
 =  9.156    (WHEN MIN. R.F.=1)  AT K=   1, I=   1, J=  99

 MAXIMUM STEPSIZE WHICH MEETS STABILITY CRITERION OF THE ADVECTION TERM
 (FOR PURE FINITE-DIFFERENCE OPTION, MIXELM=0) 
 =  8.936    (WHEN MIN. R.F.=1)  AT K=   1, I=   1, J=  99


 TOTAL NUMBER OF POINT SOURCES/SINKS PRESENT IN THE FLOW MODEL =       100

 MAXIMUM STEPSIZE WHICH MEETS STABILITY CRITERION OF THE SINK & SOURCE TERM
 =  122.8    (WHEN MIN. R.F.=1)  AT K=   1, I=   1, J=   1

 MAXIMUM STEPSIZE WHICH MEETS STABILITY CRITERION OF THE DISPERSION TERM
 =  2.041    (WHEN MIN. R.F.=1)  AT K=   1, I=   1, J=  99
     5 CALLS TO GCG PACKAGE FOR TRANSPORT TIME STEP  34 IN FLOW TIME STEP   1 STRESS PERIOD   3
    15 TOTAL ITERATIONS
 
 SOLVING FOR HEAD 


     2 CALLS TO PCG ROUTINE FOR TIME STEP   1 IN STRESS PERIOD    3
    21 TOTAL ITERATIONS

 MAXIMUM HEAD CHANGE FOR EACH ITERATION (1 INDICATES THE FIRST INNER ITERATION):

    HEAD CHANGE    HEAD CHANGE    HEAD CHANGE    HEAD CHANGE    HEAD CHANGE 
   LAYER,ROW,COL  LAYER,ROW,COL  LAYER,ROW,COL  LAYER,ROW,COL  LAYER,ROW,COL
 ---------------------------------------------------------------------------
  1  0.1328E-02  0  0.4422E-03  0  0.2091E-03  0  0.1062E-03  0  0.6577E-04
   ( 50,  1, 63)  ( 48,  1, 71)  ( 45,  1, 75)  ( 42,  1, 79)  ( 38,  1, 81)
  0  0.4019E-04  0 -0.2355E-04  0 -0.1661E-04  0 -0.1089E-04  0 -0.7424E-05
   ( 50,  1, 81)  (  1,  1, 82)  (  3,  1, 64)  (  1,  1, 68)  (  2,  1, 55)
  0 -0.5162E-05  0 -0.3412E-05  0 -0.2384E-05  0 -0.1702E-05  0 -0.1322E-05
   (  3,  1, 47)  (  2,  1, 51)  (  3,  1, 44)  (  4,  1, 39)  (  5,  1, 31)
  0 -0.1218E-05  0 -0.1195E-05  0 -0.1195E-05  0 -0.1030E-05  0 -0.9054E-06
   (  6,  1,  3)  (  2,  1,  6)  ( 19,  1,  2)  ( 14,  1,  3)  ( 49,  1, 14)
  1 -0.2386E-06
   ( 32,  1,  8)

 MAXIMUM RESIDUAL FOR EACH ITERATION (1 INDICATES THE FIRST INNER ITERATION):

    RESIDUAL       RESIDUAL       RESIDUAL       RESIDUAL       RESIDUAL    
   LAYER,ROW,COL  LAYER,ROW,COL  LAYER,ROW,COL  LAYER,ROW,COL  LAYER,ROW,COL
 ---------------------------------------------------------------------------
  1   9.334      0   5.920      0  -2.399      0  -1.406      0  -1.005    
   ( 50,  1, 65)  ( 50,  1, 57)  ( 50,  1, 71)  ( 50,  1, 76)  ( 50,  1, 54)
  0 -0.5946      0 -0.4355      0  0.2051      0 -0.1487      0  0.1427    
   ( 49,  1, 66)  ( 49,  1, 62)  ( 50,  1, 53)  ( 42,  1, 99)  ( 47,  1, 99)
  0  0.1113      0 -0.7766E-01  0 -0.6736E-01  0 -0.5011E-01  0  0.4549E-01
   ( 44,  1, 99)  ( 48,  1, 99)  ( 45,  1, 99)  ( 42,  1, 99)  ( 47,  1, 99)
  0  0.4221E-01  0 -0.3667E-01  0 -0.4228E-01  0 -0.3210E-01  0  0.2621E-01
   ( 44,  1, 99)  ( 48,  1, 99)  ( 46,  1, 99)  ( 43,  1, 99)  ( 48,  1, 99)
  1  0.9899E-02
   ( 48,  1, 99)


 FLOW MODEL IS TRANSIENT
 FLOW MODEL CONTAINS CONSTANT-HEAD CELLS


 MAXIMUM STEPSIZE DURING WHICH ANY PARTICLE CANNOT MOVE MORE THAN ONE CELL
 =  9.161    (WHEN MIN. R.F.=1)  AT K=   1, I=   1, J=  99

 MAXIMUM STEPSIZE WHICH MEETS STABILITY CRITERION OF THE ADVECTION TERM
 (FOR PURE FINITE-DIFFERENCE OPTION, MIXELM=0) 
 =  8.941    (WHEN MIN. R.F.=1)  AT K=   1, I=   1, J=  99


 TOTAL NUMBER OF POINT SOURCES/SINKS PRESENT IN THE FLOW MODEL =       100

 MAXIMUM STEPSIZE WHICH MEETS STABILITY CRITERION OF THE SINK & SOURCE TERM
 =  122.8    (WHEN MIN. R.F.=1)  AT K=   1, I=   1, J=   1

 MAXIMUM STEPSIZE WHICH MEETS STABILITY CRITERION OF THE DISPERSION TERM
 =  2.042    (WHEN MIN. R.F.=1)  AT K=   1, I=   1, J=  99
     5 CALLS TO GCG PACKAGE FOR TRANSPORT TIME STEP  35 IN FLOW TIME STEP   1 STRESS PERIOD   3
    15 TOTAL ITERATIONS
 
 SOLVING FOR HEAD 


     2 CALLS TO PCG ROUTINE FOR TIME STEP   1 IN STRESS PERIOD    3
    20 TOTAL ITERATIONS

 MAXIMUM HEAD CHANGE FOR EACH ITERATION (1 INDICATES THE FIRST INNER ITERATION):

    HEAD CHANGE    HEAD CHANGE    HEAD CHANGE    HEAD CHANGE    HEAD CHANGE 
   LAYER,ROW,COL  LAYER,ROW,COL  LAYER,ROW,COL  LAYER,ROW,COL  LAYER,ROW,COL
 ---------------------------------------------------------------------------
  1  0.1322E-02  0  0.4399E-03  0  0.2084E-03  0  0.1060E-03  0  0.6578E-04
   ( 50,  1, 63)  ( 48,  1, 70)  ( 45,  1, 75)  ( 42,  1, 79)  ( 38,  1, 81)
  0  0.4027E-04  0 -0.2333E-04  0 -0.1642E-04  0 -0.1076E-04  0 -0.7373E-05
   ( 50,  1, 80)  (  1,  1, 82)  (  3,  1, 64)  (  1,  1, 68)  (  2,  1, 55)
  0 -0.5062E-05  0 -0.3281E-05  0 -0.2264E-05  0 -0.1588E-05  0 -0.1190E-05
   (  3,  1, 47)  (  2,  1, 51)  (  4,  1, 46)  (  4,  1, 39)  (  5,  1, 32)
  0 -0.1083E-05  0 -0.1054E-05  0 -0.1044E-05  0 -0.9493E-06  1 -0.2729E-06
   (  6,  1,  3)  (  3,  1,  6)  (  1,  1,  9)  ( 14,  1,  3)  ( 38,  1,  7)

 MAXIMUM RESIDUAL FOR EACH ITERATION (1 INDICATES THE FIRST INNER ITERATION):

    RESIDUAL       RESIDUAL       RESIDUAL       RESIDUAL       RESIDUAL    
   LAYER,ROW,COL  LAYER,ROW,COL  LAYER,ROW,COL  LAYER,ROW,COL  LAYER,ROW,COL
 ---------------------------------------------------------------------------
  1   9.301      0   5.879      0  -2.387      0  -1.404      0  -1.004    
   ( 50,  1, 65)  ( 50,  1, 57)  ( 50,  1, 71)  ( 50,  1, 76)  ( 50,  1, 54)
  0 -0.5922      0 -0.4323      0  0.2034      0 -0.1464      0  0.1397    
   ( 49,  1, 66)  ( 49,  1, 62)  ( 50,  1, 53)  ( 42,  1, 99)  ( 47,  1, 99)
  0  0.1087      0 -0.7522E-01  0 -0.6456E-01  0 -0.4723E-01  0  0.4172E-01
   ( 44,  1, 99)  ( 48,  1, 99)  ( 45,  1, 99)  ( 42,  1, 99)  ( 47,  1, 99)
  0  0.3768E-01  0 -0.3218E-01  0 -0.3752E-01  0 -0.2924E-01  1 -0.1152E-01
   ( 44,  1, 99)  ( 48,  1, 99)  ( 46,  1, 99)  ( 43,  1, 99)  ( 43,  1, 99)


 FLOW MODEL IS TRANSIENT
 FLOW MODEL CONTAINS CONSTANT-HEAD CELLS


 MAXIMUM STEPSIZE DURING WHICH ANY PARTICLE CANNOT MOVE MORE THAN ONE CELL
 =  9.166    (WHEN MIN. R.F.=1)  AT K=   1, I=   1, J=  99

 MAXIMUM STEPSIZE WHICH MEETS STABILITY CRITERION OF THE ADVECTION TERM
 (FOR PURE FINITE-DIFFERENCE OPTION, MIXELM=0) 
 =  8.946    (WHEN MIN. R.F.=1)  AT K=   1, I=   1, J=  99


 TOTAL NUMBER OF POINT SOURCES/SINKS PRESENT IN THE FLOW MODEL =       100

 MAXIMUM STEPSIZE WHICH MEETS STABILITY CRITERION OF THE SINK & SOURCE TERM
 =  122.8    (WHEN MIN. R.F.=1)  AT K=   1, I=   1, J=   1

 MAXIMUM STEPSIZE WHICH MEETS STABILITY CRITERION OF THE DISPERSION TERM
 =  2.043    (WHEN MIN. R.F.=1)  AT K=   1, I=   1, J=  99
     5 CALLS TO GCG PACKAGE FOR TRANSPORT TIME STEP  36 IN FLOW TIME STEP   1 STRESS PERIOD   3
    15 TOTAL ITERATIONS
 
 SOLVING FOR HEAD 


     2 CALLS TO PCG ROUTINE FOR TIME STEP   1 IN STRESS PERIOD    3
    20 TOTAL ITERATIONS

 MAXIMUM HEAD CHANGE FOR EACH ITERATION (1 INDICATES THE FIRST INNER ITERATION):

    HEAD CHANGE    HEAD CHANGE    HEAD CHANGE    HEAD CHANGE    HEAD CHANGE 
   LAYER,ROW,COL  LAYER,ROW,COL  LAYER,ROW,COL  LAYER,ROW,COL  LAYER,ROW,COL
 ---------------------------------------------------------------------------
  1  0.1314E-02  0  0.4379E-03  0  0.2073E-03  0  0.1055E-03  0  0.6534E-04
   ( 50,  1, 63)  ( 48,  1, 70)  ( 45,  1, 75)  ( 42,  1, 79)  ( 38,  1, 81)
  0  0.4032E-04  0 -0.2324E-04  0 -0.1623E-04  0 -0.1057E-04  0 -0.7264E-05
   ( 50,  1, 80)  (  1,  1, 82)  (  3,  1, 64)  (  1,  1, 68)  (  2,  1, 54)
  0 -0.5078E-05  0 -0.3420E-05  0 -0.2358E-05  0 -0.1646E-05  0 -0.1321E-05
   (  1,  1, 58)  (  2,  1, 50)  (  3,  1, 43)  (  4,  1, 37)  (  4,  1, 28)
  0 -0.1196E-05  0 -0.1180E-05  0 -0.1174E-05  0 -0.9916E-06  1 -0.2937E-06
   (  6,  1,  3)  (  2,  1,  6)  (  3,  1,  3)  ( 14,  1,  4)  ( 38,  1,  7)

 MAXIMUM RESIDUAL FOR EACH ITERATION (1 INDICATES THE FIRST INNER ITERATION):

    RESIDUAL       RESIDUAL       RESIDUAL       RESIDUAL       RESIDUAL    
   LAYER,ROW,COL  LAYER,ROW,COL  LAYER,ROW,COL  LAYER,ROW,COL  LAYER,ROW,COL
 ---------------------------------------------------------------------------
  1   9.265      0   5.828      0  -2.376      0  -1.406      0  -1.004    
   ( 50,  1, 65)  ( 50,  1, 57)  ( 50,  1, 71)  ( 50,  1, 76)  ( 50,  1, 54)
  0 -0.5903      0 -0.4315      0  0.2053      0 -0.1446      0  0.1383    
   ( 49,  1, 66)  ( 49,  1, 62)  ( 50,  1, 53)  ( 42,  1, 99)  ( 47,  1, 99)
  0  0.1100      0 -0.7499E-01  0 -0.6521E-01  0 -0.4852E-01  0  0.4357E-01
   ( 44,  1, 99)  ( 48,  1, 99)  ( 46,  1, 99)  ( 42,  1, 99)  ( 47,  1, 99)
  0  0.3999E-01  0 -0.3475E-01  0 -0.3998E-01  0 -0.3067E-01  1 -0.1212E-01
   ( 44,  1, 99)  ( 48,  1, 99)  ( 46,  1, 99)  ( 43,  1, 99)  ( 43,  1, 99)


 FLOW MODEL IS TRANSIENT
 FLOW MODEL CONTAINS CONSTANT-HEAD CELLS


 MAXIMUM STEPSIZE DURING WHICH ANY PARTICLE CANNOT MOVE MORE THAN ONE CELL
 =  9.171    (WHEN MIN. R.F.=1)  AT K=   1, I=   1, J=  99

 MAXIMUM STEPSIZE WHICH MEETS STABILITY CRITERION OF THE ADVECTION TERM
 (FOR PURE FINITE-DIFFERENCE OPTION, MIXELM=0) 
 =  8.950    (WHEN MIN. R.F.=1)  AT K=   1, I=   1, J=  99


 TOTAL NUMBER OF POINT SOURCES/SINKS PRESENT IN THE FLOW MODEL =       100

 MAXIMUM STEPSIZE WHICH MEETS STABILITY CRITERION OF THE SINK & SOURCE TERM
 =  122.8    (WHEN MIN. R.F.=1)  AT K=   1, I=   1, J=   1

 MAXIMUM STEPSIZE WHICH MEETS STABILITY CRITERION OF THE DISPERSION TERM
 =  2.044    (WHEN MIN. R.F.=1)  AT K=   1, I=   1, J=  99
     5 CALLS TO GCG PACKAGE FOR TRANSPORT TIME STEP  37 IN FLOW TIME STEP   1 STRESS PERIOD   3
    15 TOTAL ITERATIONS
 
 SOLVING FOR HEAD 


     2 CALLS TO PCG ROUTINE FOR TIME STEP   1 IN STRESS PERIOD    3
    18 TOTAL ITERATIONS

 MAXIMUM HEAD CHANGE FOR EACH ITERATION (1 INDICATES THE FIRST INNER ITERATION):

    HEAD CHANGE    HEAD CHANGE    HEAD CHANGE    HEAD CHANGE    HEAD CHANGE 
   LAYER,ROW,COL  LAYER,ROW,COL  LAYER,ROW,COL  LAYER,ROW,COL  LAYER,ROW,COL
 ---------------------------------------------------------------------------
  1  0.1306E-02  0  0.4357E-03  0  0.2064E-03  0  0.1054E-03  0  0.6535E-04
   ( 50,  1, 63)  ( 48,  1, 70)  ( 45,  1, 75)  ( 42,  1, 79)  ( 38,  1, 81)
  0  0.4035E-04  0 -0.2305E-04  0 -0.1604E-04  0 -0.1048E-04  0 -0.7183E-05
   ( 50,  1, 80)  (  1,  1, 82)  (  3,  1, 64)  (  1,  1, 68)  (  2,  1, 55)
  0 -0.4831E-05  0 -0.3205E-05  0 -0.2185E-05  0 -0.1484E-05  0 -0.1144E-05
   (  3,  1, 46)  (  2,  1, 50)  (  4,  1, 45)  (  5,  1, 39)  (  4,  1, 27)
  0 -0.1015E-05  0 -0.9834E-06  1 -0.2498E-06
   (  6,  1,  3)  (  2,  1,  6)  ( 48,  1, 29)

 MAXIMUM RESIDUAL FOR EACH ITERATION (1 INDICATES THE FIRST INNER ITERATION):

    RESIDUAL       RESIDUAL       RESIDUAL       RESIDUAL       RESIDUAL    
   LAYER,ROW,COL  LAYER,ROW,COL  LAYER,ROW,COL  LAYER,ROW,COL  LAYER,ROW,COL
 ---------------------------------------------------------------------------
  1   9.217      0   5.832      0  -2.375      0  -1.402      0  -1.002    
   ( 50,  1, 65)  ( 50,  1, 56)  ( 50,  1, 70)  ( 50,  1, 76)  ( 50,  1, 54)
  0 -0.5878      0 -0.4287      0  0.2021      0 -0.1421      0  0.1351    
   ( 49,  1, 65)  ( 49,  1, 61)  ( 50,  1, 53)  ( 42,  1, 99)  ( 47,  1, 99)
  0  0.1068      0 -0.7230E-01  0 -0.6233E-01  0 -0.4501E-01  0  0.3884E-01
   ( 44,  1, 99)  ( 48,  1, 99)  ( 46,  1, 99)  ( 42,  1, 99)  ( 47,  1, 99)
  0  0.3433E-01  0 -0.2892E-01  1 -0.1050E-01
   ( 44,  1, 99)  ( 48,  1, 99)  ( 48,  1, 99)


 FLOW MODEL IS TRANSIENT
 FLOW MODEL CONTAINS CONSTANT-HEAD CELLS


 MAXIMUM STEPSIZE DURING WHICH ANY PARTICLE CANNOT MOVE MORE THAN ONE CELL
 =  9.176    (WHEN MIN. R.F.=1)  AT K=   1, I=   1, J=  99

 MAXIMUM STEPSIZE WHICH MEETS STABILITY CRITERION OF THE ADVECTION TERM
 (FOR PURE FINITE-DIFFERENCE OPTION, MIXELM=0) 
 =  8.955    (WHEN MIN. R.F.=1)  AT K=   1, I=   1, J=  99


 TOTAL NUMBER OF POINT SOURCES/SINKS PRESENT IN THE FLOW MODEL =       100

 MAXIMUM STEPSIZE WHICH MEETS STABILITY CRITERION OF THE SINK & SOURCE TERM
 =  122.8    (WHEN MIN. R.F.=1)  AT K=   1, I=   1, J=   1

 MAXIMUM STEPSIZE WHICH MEETS STABILITY CRITERION OF THE DISPERSION TERM
 =  2.045    (WHEN MIN. R.F.=1)  AT K=   1, I=   1, J=  99
     5 CALLS TO GCG PACKAGE FOR TRANSPORT TIME STEP  38 IN FLOW TIME STEP   1 STRESS PERIOD   3
    15 TOTAL ITERATIONS
 
 SOLVING FOR HEAD 


     2 CALLS TO PCG ROUTINE FOR TIME STEP   1 IN STRESS PERIOD    3
    20 TOTAL ITERATIONS

 MAXIMUM HEAD CHANGE FOR EACH ITERATION (1 INDICATES THE FIRST INNER ITERATION):

    HEAD CHANGE    HEAD CHANGE    HEAD CHANGE    HEAD CHANGE    HEAD CHANGE 
   LAYER,ROW,COL  LAYER,ROW,COL  LAYER,ROW,COL  LAYER,ROW,COL  LAYER,ROW,COL
 ---------------------------------------------------------------------------
  1  0.1301E-02  0  0.4333E-03  0  0.2056E-03  0  0.1051E-03  0  0.6536E-04
   ( 50,  1, 62)  ( 48,  1, 70)  ( 46,  1, 75)  ( 42,  1, 79)  ( 38,  1, 81)
  0  0.4031E-04  0 -0.2279E-04  0 -0.1604E-04  0 -0.1033E-04  0 -0.7231E-05
   ( 50,  1, 80)  (  1,  1, 82)  (  3,  1, 64)  (  1,  1, 68)  (  2,  1, 54)
  0 -0.4994E-05  0 -0.3295E-05  0 -0.2257E-05  0 -0.1550E-05  0 -0.1221E-05
   (  1,  1, 58)  (  2,  1, 50)  (  3,  1, 43)  (  4,  1, 37)  (  4,  1, 27)
  0 -0.1121E-05  0 -0.1098E-05  0 -0.1090E-05  0 -0.9441E-06  1 -0.2702E-06
   (  6,  1,  3)  (  2,  1,  6)  (  4,  1,  3)  ( 14,  1,  4)  ( 38,  1,  7)

 MAXIMUM RESIDUAL FOR EACH ITERATION (1 INDICATES THE FIRST INNER ITERATION):

    RESIDUAL       RESIDUAL       RESIDUAL       RESIDUAL       RESIDUAL    
   LAYER,ROW,COL  LAYER,ROW,COL  LAYER,ROW,COL  LAYER,ROW,COL  LAYER,ROW,COL
 ---------------------------------------------------------------------------
  1   9.168      0   5.827      0  -2.372      0  -1.399      0  -1.000    
   ( 50,  1, 65)  ( 50,  1, 56)  ( 50,  1, 70)  ( 50,  1, 76)  ( 50,  1, 54)
  0 -0.5869      0 -0.4285      0  0.2015      0 -0.1407      0  0.1337    
   ( 49,  1, 65)  ( 49,  1, 61)  ( 50,  1, 53)  ( 42,  1, 99)  ( 47,  1, 99)
  0  0.1070      0 -0.7208E-01  0 -0.6296E-01  0 -0.4612E-01  0  0.4077E-01
   ( 44,  1, 99)  ( 48,  1, 99)  ( 46,  1, 99)  ( 42,  1, 99)  ( 47,  1, 99)
  0  0.3678E-01  0 -0.3157E-01  0 -0.3651E-01  0 -0.2857E-01  1 -0.1142E-01
   ( 44,  1, 99)  ( 48,  1, 99)  ( 46,  1, 99)  ( 43,  1, 99)  ( 43,  1, 99)


 FLOW MODEL IS TRANSIENT
 FLOW MODEL CONTAINS CONSTANT-HEAD CELLS


 MAXIMUM STEPSIZE DURING WHICH ANY PARTICLE CANNOT MOVE MORE THAN ONE CELL
 =  9.181    (WHEN MIN. R.F.=1)  AT K=   1, I=   1, J=  99

 MAXIMUM STEPSIZE WHICH MEETS STABILITY CRITERION OF THE ADVECTION TERM
 (FOR PURE FINITE-DIFFERENCE OPTION, MIXELM=0) 
 =  8.959    (WHEN MIN. R.F.=1)  AT K=   1, I=   1, J=  99


 TOTAL NUMBER OF POINT SOURCES/SINKS PRESENT IN THE FLOW MODEL =       100

 MAXIMUM STEPSIZE WHICH MEETS STABILITY CRITERION OF THE SINK & SOURCE TERM
 =  122.8    (WHEN MIN. R.F.=1)  AT K=   1, I=   1, J=   1

 MAXIMUM STEPSIZE WHICH MEETS STABILITY CRITERION OF THE DISPERSION TERM
 =  2.046    (WHEN MIN. R.F.=1)  AT K=   1, I=   1, J=  99
     5 CALLS TO GCG PACKAGE FOR TRANSPORT TIME STEP  39 IN FLOW TIME STEP   1 STRESS PERIOD   3
    15 TOTAL ITERATIONS
 
 SOLVING FOR HEAD 


     2 CALLS TO PCG ROUTINE FOR TIME STEP   1 IN STRESS PERIOD    3
    20 TOTAL ITERATIONS

 MAXIMUM HEAD CHANGE FOR EACH ITERATION (1 INDICATES THE FIRST INNER ITERATION):

    HEAD CHANGE    HEAD CHANGE    HEAD CHANGE    HEAD CHANGE    HEAD CHANGE 
   LAYER,ROW,COL  LAYER,ROW,COL  LAYER,ROW,COL  LAYER,ROW,COL  LAYER,ROW,COL
 ---------------------------------------------------------------------------
  1  0.1295E-02  0  0.4309E-03  0  0.2048E-03  0  0.1049E-03  0  0.6529E-04
   ( 50,  1, 62)  ( 48,  1, 70)  ( 46,  1, 75)  ( 42,  1, 79)  ( 38,  1, 81)
  0  0.4027E-04  0 -0.2293E-04  0 -0.1594E-04  0 -0.1043E-04  0 -0.7110E-05
   ( 50,  1, 80)  (  1,  1, 82)  (  3,  1, 64)  (  1,  1, 67)  (  2,  1, 54)
  0 -0.4837E-05  0 -0.3222E-05  0 -0.2217E-05  0 -0.1519E-05  0 -0.1195E-05
   (  1,  1, 58)  (  2,  1, 50)  (  3,  1, 43)  (  4,  1, 37)  (  4,  1, 27)
  0 -0.1090E-05  0 -0.1064E-05  0 -0.1065E-05  0 -0.9196E-06  1 -0.2649E-06
   (  6,  1,  3)  (  2,  1,  6)  (  4,  1,  3)  (  6,  1,  1)  ( 38,  1,  7)

 MAXIMUM RESIDUAL FOR EACH ITERATION (1 INDICATES THE FIRST INNER ITERATION):

    RESIDUAL       RESIDUAL       RESIDUAL       RESIDUAL       RESIDUAL    
   LAYER,ROW,COL  LAYER,ROW,COL  LAYER,ROW,COL  LAYER,ROW,COL  LAYER,ROW,COL
 ---------------------------------------------------------------------------
  1   9.115      0   5.814      0  -2.366      0  -1.395      0 -0.9967    
   ( 50,  1, 64)  ( 50,  1, 56)  ( 50,  1, 70)  ( 50,  1, 76)  ( 50,  1, 54)
  0 -0.5871      0 -0.4276      0  0.2000      0 -0.1382      0  0.1316    
   ( 49,  1, 65)  ( 49,  1, 61)  ( 50,  1, 53)  ( 42,  1, 99)  ( 47,  1, 99)
  0  0.1051      0 -0.7083E-01  0 -0.6202E-01  0 -0.4519E-01  0  0.3972E-01
   ( 44,  1, 99)  ( 48,  1, 99)  ( 46,  1, 99)  ( 42,  1, 99)  ( 47,  1, 99)
  0  0.3573E-01  0 -0.3041E-01  0 -0.3538E-01  0 -0.2798E-01  1 -0.1102E-01
   ( 44,  1, 99)  ( 48,  1, 99)  ( 46,  1, 99)  ( 43,  1, 99)  ( 43,  1, 99)


 FLOW MODEL IS TRANSIENT
 FLOW MODEL CONTAINS CONSTANT-HEAD CELLS


 MAXIMUM STEPSIZE DURING WHICH ANY PARTICLE CANNOT MOVE MORE THAN ONE CELL
 =  9.185    (WHEN MIN. R.F.=1)  AT K=   1, I=   1, J=  99

 MAXIMUM STEPSIZE WHICH MEETS STABILITY CRITERION OF THE ADVECTION TERM
 (FOR PURE FINITE-DIFFERENCE OPTION, MIXELM=0) 
 =  8.964    (WHEN MIN. R.F.=1)  AT K=   1, I=   1, J=  99


 TOTAL NUMBER OF POINT SOURCES/SINKS PRESENT IN THE FLOW MODEL =       100

 MAXIMUM STEPSIZE WHICH MEETS STABILITY CRITERION OF THE SINK & SOURCE TERM
 =  122.8    (WHEN MIN. R.F.=1)  AT K=   1, I=   1, J=   1

 MAXIMUM STEPSIZE WHICH MEETS STABILITY CRITERION OF THE DISPERSION TERM
 =  2.047    (WHEN MIN. R.F.=1)  AT K=   1, I=   1, J=  99
     5 CALLS TO GCG PACKAGE FOR TRANSPORT TIME STEP  40 IN FLOW TIME STEP   1 STRESS PERIOD   3
    15 TOTAL ITERATIONS
 
 SOLVING FOR HEAD 


     2 CALLS TO PCG ROUTINE FOR TIME STEP   1 IN STRESS PERIOD    3
    21 TOTAL ITERATIONS

 MAXIMUM HEAD CHANGE FOR EACH ITERATION (1 INDICATES THE FIRST INNER ITERATION):

    HEAD CHANGE    HEAD CHANGE    HEAD CHANGE    HEAD CHANGE    HEAD CHANGE 
   LAYER,ROW,COL  LAYER,ROW,COL  LAYER,ROW,COL  LAYER,ROW,COL  LAYER,ROW,COL
 ---------------------------------------------------------------------------
  1  0.1289E-02  0  0.4283E-03  0  0.2041E-03  0  0.1046E-03  0  0.6508E-04
   ( 50,  1, 62)  ( 48,  1, 70)  ( 45,  1, 74)  ( 42,  1, 78)  ( 38,  1, 81)
  0  0.4022E-04  0 -0.2286E-04  0 -0.1589E-04  0 -0.1032E-04  0 -0.7328E-05
   ( 50,  1, 80)  (  1,  1, 82)  (  3,  1, 64)  (  1,  1, 68)  (  2,  1, 54)
  0 -0.5019E-05  0 -0.3326E-05  0 -0.2327E-05  0 -0.1646E-05  0 -0.1359E-05
   (  1,  1, 58)  (  2,  1, 50)  (  3,  1, 43)  (  4,  1, 37)  (  4,  1, 27)
  0 -0.1324E-05  0 -0.1307E-05  0 -0.1259E-05  0 -0.1040E-05  0 -0.9311E-06
   (  6,  1,  3)  (  2,  1,  6)  (  4,  1,  3)  ( 14,  1,  4)  ( 49,  1, 14)
  1 -0.2444E-06
   ( 32,  1,  8)

 MAXIMUM RESIDUAL FOR EACH ITERATION (1 INDICATES THE FIRST INNER ITERATION):

    RESIDUAL       RESIDUAL       RESIDUAL       RESIDUAL       RESIDUAL    
   LAYER,ROW,COL  LAYER,ROW,COL  LAYER,ROW,COL  LAYER,ROW,COL  LAYER,ROW,COL
 ---------------------------------------------------------------------------
  1   9.094      0   5.786      0  -2.359      0  -1.393      0 -0.9951    
   ( 50,  1, 64)  ( 50,  1, 56)  ( 50,  1, 70)  ( 50,  1, 76)  ( 50,  1, 53)
  0 -0.5851      0 -0.4263      0  0.1986      0  0.1373      0  0.1303    
   ( 49,  1, 65)  ( 49,  1, 61)  ( 50,  1, 53)  ( 49,  1, 65)  ( 47,  1, 99)
  0  0.1052      0 -0.7154E-01  0 -0.6387E-01  0 -0.4798E-01  0  0.4425E-01
   ( 44,  1, 99)  ( 48,  1, 99)  ( 46,  1, 99)  ( 42,  1, 99)  ( 47,  1, 99)
  0  0.4119E-01  0 -0.3601E-01  0 -0.4095E-01  0 -0.3150E-01  0  0.2538E-01
   ( 44,  1, 99)  ( 48,  1, 99)  ( 46,  1, 99)  ( 43,  1, 99)  ( 47,  1, 99)
  1  0.9856E-02
   ( 47,  1, 99)


 FLOW MODEL IS TRANSIENT
 FLOW MODEL CONTAINS CONSTANT-HEAD CELLS


 MAXIMUM STEPSIZE DURING WHICH ANY PARTICLE CANNOT MOVE MORE THAN ONE CELL
 =  9.190    (WHEN MIN. R.F.=1)  AT K=   1, I=   1, J=  99

 MAXIMUM STEPSIZE WHICH MEETS STABILITY CRITERION OF THE ADVECTION TERM
 (FOR PURE FINITE-DIFFERENCE OPTION, MIXELM=0) 
 =  8.969    (WHEN MIN. R.F.=1)  AT K=   1, I=   1, J=  99


 TOTAL NUMBER OF POINT SOURCES/SINKS PRESENT IN THE FLOW MODEL =       100

 MAXIMUM STEPSIZE WHICH MEETS STABILITY CRITERION OF THE SINK & SOURCE TERM
 =  122.8    (WHEN MIN. R.F.=1)  AT K=   1, I=   1, J=   1

 MAXIMUM STEPSIZE WHICH MEETS STABILITY CRITERION OF THE DISPERSION TERM
 =  2.048    (WHEN MIN. R.F.=1)  AT K=   1, I=   1, J=  99
     5 CALLS TO GCG PACKAGE FOR TRANSPORT TIME STEP  41 IN FLOW TIME STEP   1 STRESS PERIOD   3
    15 TOTAL ITERATIONS
 
 SOLVING FOR HEAD 


     2 CALLS TO PCG ROUTINE FOR TIME STEP   1 IN STRESS PERIOD    3
    12 TOTAL ITERATIONS

 MAXIMUM HEAD CHANGE FOR EACH ITERATION (1 INDICATES THE FIRST INNER ITERATION):

    HEAD CHANGE    HEAD CHANGE    HEAD CHANGE    HEAD CHANGE    HEAD CHANGE 
   LAYER,ROW,COL  LAYER,ROW,COL  LAYER,ROW,COL  LAYER,ROW,COL  LAYER,ROW,COL
 ---------------------------------------------------------------------------
  1  0.1116E-02  0  0.3078E-03  0  0.1084E-03  0  0.4886E-04  0  0.2444E-04
   ( 50,  1, 62)  ( 48,  1, 69)  ( 45,  1, 74)  ( 42,  1, 78)  ( 38,  1, 80)
  0  0.1203E-04  0 -0.5459E-05  0 -0.2890E-05  0 -0.1674E-05  0 -0.1159E-05
   ( 50,  1, 79)  (  1,  1, 82)  (  4,  1, 66)  (  1,  1, 68)  (  4,  1, 54)
  0 -0.7920E-06  1 -0.2306E-06
   (  2,  1, 58)  (  2,  1, 50)

 MAXIMUM RESIDUAL FOR EACH ITERATION (1 INDICATES THE FIRST INNER ITERATION):

    RESIDUAL       RESIDUAL       RESIDUAL       RESIDUAL       RESIDUAL    
   LAYER,ROW,COL  LAYER,ROW,COL  LAYER,ROW,COL  LAYER,ROW,COL  LAYER,ROW,COL
 ---------------------------------------------------------------------------
  1   8.024      0   4.327      0  -1.465      0 -0.6810      0 -0.3801    
   ( 50,  1, 64)  ( 50,  1, 55)  ( 50,  1, 69)  ( 50,  1, 75)  ( 50,  1, 53)
  0 -0.1991      0 -0.1204      0 -0.4505E-01  0  0.2795E-01  0  0.2280E-01
   ( 49,  1, 64)  ( 49,  1, 60)  ( 49,  1, 52)  ( 49,  1, 64)  ( 47,  1, 99)
  0  0.1685E-01  1  0.4796E-02
   ( 44,  1, 99)  ( 42,  1, 99)


 FLOW MODEL IS TRANSIENT
 FLOW MODEL CONTAINS CONSTANT-HEAD CELLS


 MAXIMUM STEPSIZE DURING WHICH ANY PARTICLE CANNOT MOVE MORE THAN ONE CELL
 =  9.193    (WHEN MIN. R.F.=1)  AT K=   1, I=   1, J=  99

 MAXIMUM STEPSIZE WHICH MEETS STABILITY CRITERION OF THE ADVECTION TERM
 (FOR PURE FINITE-DIFFERENCE OPTION, MIXELM=0) 
 =  8.971    (WHEN MIN. R.F.=1)  AT K=   1, I=   1, J=  99


 TOTAL NUMBER OF POINT SOURCES/SINKS PRESENT IN THE FLOW MODEL =       100

 MAXIMUM STEPSIZE WHICH MEETS STABILITY CRITERION OF THE SINK & SOURCE TERM
 =  122.8    (WHEN MIN. R.F.=1)  AT K=   1, I=   1, J=   1

 MAXIMUM STEPSIZE WHICH MEETS STABILITY CRITERION OF THE DISPERSION TERM
 =  2.049    (WHEN MIN. R.F.=1)  AT K=   1, I=   1, J=  99
     3 CALLS TO GCG PACKAGE FOR TRANSPORT TIME STEP  42 IN FLOW TIME STEP   1 STRESS PERIOD   3
     6 TOTAL ITERATIONS
  MAXIMUM CONCENTRATION CHANGES FOR EACH ITERATION:
  MAX. CHANGE LAYER,ROW,COL MAX. CHANGE LAYER,ROW,COL MAX. CHANGE LAYER,ROW,COL MAX. CHANGE LAYER,ROW,COL MAX. CHANGE LAYER,ROW,COL
 ------------------------------------------------------------------------------------------------------------------------------------
   0.3401E-01 (  1,  1, 99)  0.3678E-04 (  1,  1, 99)  0.1192E-06 (  2,  1, 98)  0.1340E-03 (  1,  1, 98)  0.5662E-06 (  2,  1, 98)
    0.000     (  1,  1,  1)



 >>>>>>>>>>>>>>>>>>>>>>>>>>>>>>>>>>>>>>>>>>>>>>>>>>>>>>>FOR COMPONENT NO. 01<<<<<<<<<<<<<<<<<<<<<<<<<<<<<<<<<<<<<<<<<<<<<<<<<<<<<<<


                                            -------------------------------------------
                                                      TRANSPORT STEP NO.   42
                                            -------------------------------------------

 TOTAL ELAPSED TIME SINCE BEGINNING OF SIMULATION =   1095.000       D
 .....................................................................

                     CUMMULATIVE MASS BUDGETS AT END OF TRANSPORT STEP   42, TIME STEP    1, STRESS PERIOD    3
                     ------------------------------------------------------------------------------------------

                                                             IN                           OUT
                                                      ----------------             ----------------
                               CONSTANT CONCENTRATION:    1728416.                   -860407.6    
                                        CONSTANT HEAD:    0.000000                    0.000000    
                                                WELLS:    0.000000                    0.000000    
                               MASS STOR (FLOW MODEL):    61.72150                   -1202.869    
                                MASS STORAGE (SOLUTE):    473.4583                   -867340.2    
                            ---------------------------------------------------------------------------
                                              [TOTAL]:    1728951.        K          -1728951.        K

                                                          NET (IN - OUT):   0.3750000    
                                                   DISCREPANCY (PERCENT):   0.2168946E-04

 HEAD WILL BE SAVED ON UNIT   99 AT END OF TIME STEP   1, STRESS PERIOD    3
1
  MASS BUDGET FOR ENTIRE MODEL AT END OF TIME STEP  1 IN STRESS PERIOD   3
  ------------------------------------------------------------------------------

     CUMULATIVE MASS      M       RATES FOR THIS TIME STEP      M/T
     ------------------                 ------------------------

           IN:                                      IN:
           ---                                      ---
             STORAGE =       36498.5703               STORAGE =         151.9158
       CONSTANT HEAD =    24448946.0000         CONSTANT HEAD =       14556.6123
               WELLS =    15610321.0000                 WELLS =       14256.0000
                DCDT =         715.5793                  DCDT =       5.5289E-02

            TOTAL IN =    40096484.0000              TOTAL IN =       28964.5840

          OUT:                                     OUT:
          ----                                     ----
             STORAGE =     3927213.5000               STORAGE =         149.6446
       CONSTANT HEAD =    35420572.0000         CONSTANT HEAD =       28499.8184
               WELLS =           0.0000                 WELLS =           0.0000
                DCDT =      749144.8750                  DCDT =         311.4451

           TOTAL OUT =    40096928.0000             TOTAL OUT =       28960.9082

            IN - OUT =        -444.0000              IN - OUT =           3.6758

 PERCENT DISCREPANCY =          -0.00     PERCENT DISCREPANCY =           0.01



0


          TIME SUMMARY AT END OF TRANSPORT STEP   42 IN TIME STEP    1 IN STRESS PERIOD   3
                    SECONDS     MINUTES      HOURS       DAYS        YEARS
                    -----------------------------------------------------------
  TRANS STEP LENGTH 1.23230E+05  2053.8      34.230      1.4263     3.90491E-03
   TIME STEP LENGTH 3.15360E+07 5.25600E+05  8760.0      365.00     0.99932    
 STRESS PERIOD TIME 3.15360E+07 5.25600E+05  8760.0      365.00     0.99932    
         TOTAL TIME 9.46080E+07 1.57680E+06  26280.      1095.0      2.9979    
1


                                   ++++++++++++++++++++++++++++++++++++++++++++++++++++++++++++++
                                                       STRESS PERIOD NO.  004
                                   ++++++++++++++++++++++++++++++++++++++++++++++++++++++++++++++


 LENGTH OF CURRENT STRESS PERIOD =   366.0000    
 NUMBER OF TIME STEPS FOR CURRENT STRESS PERIOD =    1
 TIME STEP MULTIPLIER USED IN FLOW SOLUTION =   1.000000    
 USER-SPECIFIED TRANSPORT STEPSIZE =   0.000000       D
 MAXIMUM NUMBER OF TRANSPORT STEPS ALLOWED  IN ONE FLOW TIME STEP =     50000
 MULTIPLIER FOR SUCCESSIVE TRANSPORT STEPS  [USED IN IMPLICIT SCHEMES] =     1.000
 MAXIMUM TRANSPORT STEP SIZE  [USED IN IMPLICIT SCHEMES] =   0.000000       D
1
                            STRESS PERIOD NO.    4, LENGTH =   366.0000    
                            -----------------------------------------------

                              NUMBER OF TIME STEPS =     1

                               MULTIPLIER FOR DELT =     1.000

                            INITIAL TIME STEP SIZE =   366.0000    

 NO. OF POINT SINKS/SOURCES OF SPECIFIED CONCONCENTRATIONS =    0 IN STRESS PERIOD  4

 WELL NO.  LAYER   ROW   COL   STRESS RATE         NOPRINT         
 ------------------------------------------------------------------

     50 WELLS


                                          ================================================
                                                         FROM TIME =   1095.0     TO    1461.0    

 
 SOLVING FOR HEAD 


     2 CALLS TO PCG ROUTINE FOR TIME STEP   1 IN STRESS PERIOD    4
    15 TOTAL ITERATIONS

 MAXIMUM HEAD CHANGE FOR EACH ITERATION (1 INDICATES THE FIRST INNER ITERATION):

    HEAD CHANGE    HEAD CHANGE    HEAD CHANGE    HEAD CHANGE    HEAD CHANGE 
   LAYER,ROW,COL  LAYER,ROW,COL  LAYER,ROW,COL  LAYER,ROW,COL  LAYER,ROW,COL
 ---------------------------------------------------------------------------
  1  0.4825E-03  0  0.1677E-03  0  0.7947E-04  0 -0.5429E-04  0 -0.4161E-04
   ( 50,  1, 64)  ( 47,  1, 72)  ( 44,  1, 75)  (  3,  1, 84)  (  4,  1, 77)
  0 -0.2202E-04  0 -0.1269E-04  0 -0.6427E-05  0 -0.4735E-05  0 -0.4005E-05
   (  5,  1, 70)  (  6,  1, 63)  (  7,  1, 57)  (  8,  1, 50)  (  1,  1, 53)
  0 -0.2605E-05  0 -0.1628E-05  0 -0.1046E-05  0  0.7524E-06  1 -0.2134E-06
   (  2,  1, 45)  (  2,  1, 38)  (  3,  1, 31)  (  4,  1, 72)  (  5,  1, 18)

 MAXIMUM RESIDUAL FOR EACH ITERATION (1 INDICATES THE FIRST INNER ITERATION):

    RESIDUAL       RESIDUAL       RESIDUAL       RESIDUAL       RESIDUAL    
   LAYER,ROW,COL  LAYER,ROW,COL  LAYER,ROW,COL  LAYER,ROW,COL  LAYER,ROW,COL
 ---------------------------------------------------------------------------
  1   6.325      0   7.354      0   4.477      0   2.972      0   2.186    
   (  2,  1, 99)  (  1,  1, 99)  (  1,  1, 99)  (  2,  1, 97)  (  2,  1, 98)
  0  -1.134      0 -0.6964      0 -0.4820      0 -0.2567      0 -0.1797    
   (  1,  1, 99)  (  2,  1, 97)  (  2,  1, 98)  (  3,  1, 96)  (  3,  1, 97)
  0  0.9481E-01  0  0.8361E-01  0  0.4723E-01  0 -0.2741E-01  1  0.1338E-01
   (  2,  1, 98)  (  3,  1, 96)  (  3,  1, 97)  (  4,  1, 97)  (  2,  1, 99)


 FLOW MODEL IS TRANSIENT
 FLOW MODEL CONTAINS CONSTANT-HEAD CELLS


 MAXIMUM STEPSIZE DURING WHICH ANY PARTICLE CANNOT MOVE MORE THAN ONE CELL
 =  9.172    (WHEN MIN. R.F.=1)  AT K=   1, I=   1, J=  99

 MAXIMUM STEPSIZE WHICH MEETS STABILITY CRITERION OF THE ADVECTION TERM
 (FOR PURE FINITE-DIFFERENCE OPTION, MIXELM=0) 
 =  8.942    (WHEN MIN. R.F.=1)  AT K=   1, I=   1, J=  99


 TOTAL NUMBER OF POINT SOURCES/SINKS PRESENT IN THE FLOW MODEL =       100

 MAXIMUM STEPSIZE WHICH MEETS STABILITY CRITERION OF THE SINK & SOURCE TERM
 =  122.8    (WHEN MIN. R.F.=1)  AT K=   1, I=   1, J=   1

 MAXIMUM STEPSIZE WHICH MEETS STABILITY CRITERION OF THE DISPERSION TERM
 =  2.042    (WHEN MIN. R.F.=1)  AT K=   1, I=   1, J=  99


     5 CALLS TO GCG PACKAGE FOR TRANSPORT TIME STEP   1 IN FLOW TIME STEP   1 STRESS PERIOD   4
    15 TOTAL ITERATIONS

 OUTPUT CONTROL FOR STRESS PERIOD    4   TIME STEP   1
    SAVE HEAD FOR ALL LAYERS
    SAVE BUDGET FOR ALL LAYERS
    SAVE BUDGET
 
 SOLVING FOR HEAD 


     2 CALLS TO PCG ROUTINE FOR TIME STEP   1 IN STRESS PERIOD    4
    20 TOTAL ITERATIONS

 MAXIMUM HEAD CHANGE FOR EACH ITERATION (1 INDICATES THE FIRST INNER ITERATION):

    HEAD CHANGE    HEAD CHANGE    HEAD CHANGE    HEAD CHANGE    HEAD CHANGE 
   LAYER,ROW,COL  LAYER,ROW,COL  LAYER,ROW,COL  LAYER,ROW,COL  LAYER,ROW,COL
 ---------------------------------------------------------------------------
  1  0.1240E-02  0  0.4116E-03  0  0.1996E-03  0  0.1024E-03  0  0.6136E-04
   ( 50,  1, 62)  ( 48,  1, 69)  ( 46,  1, 74)  ( 42,  1, 78)  ( 38,  1, 80)
  0 -0.3882E-04  0 -0.2407E-04  0 -0.1767E-04  0 -0.1104E-04  0 -0.6780E-05
   (  2,  1, 77)  (  2,  1, 82)  (  4,  1, 63)  (  1,  1, 67)  (  2,  1, 55)
  0 -0.5097E-05  0 -0.3543E-05  0 -0.2467E-05  0 -0.1733E-05  0 -0.1283E-05
   (  1,  1, 57)  (  2,  1, 49)  (  3,  1, 43)  (  5,  1, 39)  (  6,  1, 32)
  0 -0.1055E-05  0 -0.1028E-05  0 -0.1070E-05  0 -0.9278E-06  1 -0.2831E-06
   (  6,  1, 23)  ( 49,  1, 55)  ( 49,  1, 53)  ( 50,  1, 38)  ( 49,  1, 13)

 MAXIMUM RESIDUAL FOR EACH ITERATION (1 INDICATES THE FIRST INNER ITERATION):

    RESIDUAL       RESIDUAL       RESIDUAL       RESIDUAL       RESIDUAL    
   LAYER,ROW,COL  LAYER,ROW,COL  LAYER,ROW,COL  LAYER,ROW,COL  LAYER,ROW,COL
 ---------------------------------------------------------------------------
  1   8.691      0   5.529      0  -2.286      0  -1.382      0 -0.9542    
   ( 50,  1, 64)  ( 50,  1, 56)  ( 50,  1, 69)  ( 50,  1, 75)  ( 50,  1, 53)
  0 -0.5501      0 -0.4228      0  0.1859      0  0.1327      0  0.1234    
   ( 49,  1, 64)  ( 49,  1, 61)  ( 50,  1, 52)  ( 49,  1, 64)  ( 47,  1, 99)
  0  0.1012      0 -0.6816E-01  0 -0.6206E-01  0  0.4651E-01  0  0.4248E-01
   ( 44,  1, 99)  ( 48,  1, 99)  ( 46,  1, 99)  (  1,  1, 99)  ( 47,  1, 99)
  0  0.3936E-01  0 -0.3231E-01  0 -0.3717E-01  0 -0.2945E-01  1 -0.1165E-01
   ( 44,  1, 99)  ( 49,  1, 99)  ( 46,  1, 99)  ( 43,  1, 99)  ( 43,  1, 99)


 FLOW MODEL IS TRANSIENT
 FLOW MODEL CONTAINS CONSTANT-HEAD CELLS


 MAXIMUM STEPSIZE DURING WHICH ANY PARTICLE CANNOT MOVE MORE THAN ONE CELL
 =  9.195    (WHEN MIN. R.F.=1)  AT K=   1, I=   1, J=  99

 MAXIMUM STEPSIZE WHICH MEETS STABILITY CRITERION OF THE ADVECTION TERM
 (FOR PURE FINITE-DIFFERENCE OPTION, MIXELM=0) 
 =  8.972    (WHEN MIN. R.F.=1)  AT K=   1, I=   1, J=  99


 TOTAL NUMBER OF POINT SOURCES/SINKS PRESENT IN THE FLOW MODEL =       100

 MAXIMUM STEPSIZE WHICH MEETS STABILITY CRITERION OF THE SINK & SOURCE TERM
 =  122.8    (WHEN MIN. R.F.=1)  AT K=   1, I=   1, J=   1

 MAXIMUM STEPSIZE WHICH MEETS STABILITY CRITERION OF THE DISPERSION TERM
 =  2.049    (WHEN MIN. R.F.=1)  AT K=   1, I=   1, J=  99
     5 CALLS TO GCG PACKAGE FOR TRANSPORT TIME STEP   2 IN FLOW TIME STEP   1 STRESS PERIOD   4
    15 TOTAL ITERATIONS
 
 SOLVING FOR HEAD 


     2 CALLS TO PCG ROUTINE FOR TIME STEP   1 IN STRESS PERIOD    4
    20 TOTAL ITERATIONS

 MAXIMUM HEAD CHANGE FOR EACH ITERATION (1 INDICATES THE FIRST INNER ITERATION):

    HEAD CHANGE    HEAD CHANGE    HEAD CHANGE    HEAD CHANGE    HEAD CHANGE 
   LAYER,ROW,COL  LAYER,ROW,COL  LAYER,ROW,COL  LAYER,ROW,COL  LAYER,ROW,COL
 ---------------------------------------------------------------------------
  1  0.1260E-02  0  0.4183E-03  0  0.2005E-03  0  0.1031E-03  0  0.6413E-04
   ( 50,  1, 62)  ( 48,  1, 69)  ( 46,  1, 74)  ( 42,  1, 78)  ( 38,  1, 80)
  0  0.3956E-04  0 -0.2341E-04  0 -0.1606E-04  0 -0.9986E-05  0 -0.7393E-05
   ( 50,  1, 79)  (  3,  1, 73)  (  3,  1, 64)  (  1,  1, 68)  (  2,  1, 53)
  0 -0.5297E-05  0 -0.3400E-05  0 -0.2302E-05  0 -0.1589E-05  0 -0.1262E-05
   (  1,  1, 57)  (  2,  1, 49)  (  4,  1, 44)  (  5,  1, 38)  (  4,  1, 27)
  0 -0.1165E-05  0 -0.1135E-05  0 -0.1097E-05  0 -0.9288E-06  1 -0.2945E-06
   (  6,  1,  3)  (  2,  1,  5)  (  4,  1,  3)  ( 49,  1, 36)  ( 39,  1,  7)

 MAXIMUM RESIDUAL FOR EACH ITERATION (1 INDICATES THE FIRST INNER ITERATION):

    RESIDUAL       RESIDUAL       RESIDUAL       RESIDUAL       RESIDUAL    
   LAYER,ROW,COL  LAYER,ROW,COL  LAYER,ROW,COL  LAYER,ROW,COL  LAYER,ROW,COL
 ---------------------------------------------------------------------------
  1   8.905      0   5.648      0  -2.315      0  -1.386      0 -0.9878    
   ( 50,  1, 64)  ( 50,  1, 55)  ( 50,  1, 69)  ( 50,  1, 75)  ( 50,  1, 53)
  0 -0.5743      0 -0.4222      0  0.2011      0  0.1355      0  0.1227    
   ( 49,  1, 65)  ( 49,  1, 60)  ( 50,  1, 52)  ( 49,  1, 64)  ( 47,  1, 99)
  0  0.1022      0  0.6837E-01  0 -0.6159E-01  0 -0.4560E-01  0  0.4145E-01
   ( 44,  1, 99)  ( 40,  1, 99)  ( 46,  1, 99)  ( 42,  1, 99)  ( 47,  1, 99)
  0  0.3851E-01  0 -0.3257E-01  0 -0.3762E-01  0 -0.2979E-01  1 -0.1203E-01
   ( 44,  1, 99)  ( 48,  1, 99)  ( 46,  1, 99)  ( 43,  1, 99)  ( 43,  1, 99)


 FLOW MODEL IS TRANSIENT
 FLOW MODEL CONTAINS CONSTANT-HEAD CELLS


 MAXIMUM STEPSIZE DURING WHICH ANY PARTICLE CANNOT MOVE MORE THAN ONE CELL
 =  9.201    (WHEN MIN. R.F.=1)  AT K=   1, I=   1, J=  99

 MAXIMUM STEPSIZE WHICH MEETS STABILITY CRITERION OF THE ADVECTION TERM
 (FOR PURE FINITE-DIFFERENCE OPTION, MIXELM=0) 
 =  8.978    (WHEN MIN. R.F.=1)  AT K=   1, I=   1, J=  99


 TOTAL NUMBER OF POINT SOURCES/SINKS PRESENT IN THE FLOW MODEL =       100

 MAXIMUM STEPSIZE WHICH MEETS STABILITY CRITERION OF THE SINK & SOURCE TERM
 =  122.8    (WHEN MIN. R.F.=1)  AT K=   1, I=   1, J=   1

 MAXIMUM STEPSIZE WHICH MEETS STABILITY CRITERION OF THE DISPERSION TERM
 =  2.050    (WHEN MIN. R.F.=1)  AT K=   1, I=   1, J=  99
     5 CALLS TO GCG PACKAGE FOR TRANSPORT TIME STEP   3 IN FLOW TIME STEP   1 STRESS PERIOD   4
    15 TOTAL ITERATIONS
 
 SOLVING FOR HEAD 


     2 CALLS TO PCG ROUTINE FOR TIME STEP   1 IN STRESS PERIOD    4
    21 TOTAL ITERATIONS

 MAXIMUM HEAD CHANGE FOR EACH ITERATION (1 INDICATES THE FIRST INNER ITERATION):

    HEAD CHANGE    HEAD CHANGE    HEAD CHANGE    HEAD CHANGE    HEAD CHANGE 
   LAYER,ROW,COL  LAYER,ROW,COL  LAYER,ROW,COL  LAYER,ROW,COL  LAYER,ROW,COL
 ---------------------------------------------------------------------------
  1  0.1261E-02  0  0.4184E-03  0  0.2008E-03  0  0.1037E-03  0  0.6478E-04
   ( 50,  1, 61)  ( 48,  1, 69)  ( 46,  1, 74)  ( 42,  1, 78)  ( 38,  1, 80)
  0  0.3991E-04  0 -0.2293E-04  0 -0.1605E-04  0 -0.1028E-04  0 -0.7003E-05
   ( 50,  1, 79)  (  1,  1, 82)  (  3,  1, 63)  (  1,  1, 67)  (  2,  1, 53)
  0 -0.5028E-05  0 -0.3380E-05  0 -0.2334E-05  0 -0.1645E-05  0 -0.1364E-05
   (  1,  1, 57)  (  2,  1, 49)  (  4,  1, 44)  (  4,  1, 36)  (  4,  1, 27)
  0 -0.1292E-05  0 -0.1273E-05  0 -0.1236E-05  0 -0.1017E-05  0 -0.9364E-06
   (  7,  1,  3)  (  1,  1,  5)  (  4,  1,  3)  (  7,  1,  2)  ( 49,  1, 14)
  1 -0.2519E-06
   ( 33,  1,  8)

 MAXIMUM RESIDUAL FOR EACH ITERATION (1 INDICATES THE FIRST INNER ITERATION):

    RESIDUAL       RESIDUAL       RESIDUAL       RESIDUAL       RESIDUAL    
   LAYER,ROW,COL  LAYER,ROW,COL  LAYER,ROW,COL  LAYER,ROW,COL  LAYER,ROW,COL
 ---------------------------------------------------------------------------
  1   8.907      0   5.677      0  -2.326      0  -1.387      0 -0.9907    
   ( 50,  1, 64)  ( 50,  1, 55)  ( 50,  1, 69)  ( 50,  1, 75)  ( 50,  1, 53)
  0 -0.5781      0 -0.4224      0  0.1984      0  0.1359      0  0.1217    
   ( 49,  1, 64)  ( 49,  1, 60)  ( 50,  1, 52)  ( 49,  1, 64)  ( 47,  1, 99)
  0  0.1013      0  0.6818E-01  0 -0.6192E-01  0 -0.4632E-01  0  0.4293E-01
   ( 44,  1, 99)  ( 40,  1, 99)  ( 46,  1, 99)  ( 42,  1, 99)  ( 47,  1, 99)
  0  0.4047E-01  0 -0.3460E-01  0 -0.3971E-01  0 -0.3121E-01  0  0.2475E-01
   ( 44,  1, 99)  ( 48,  1, 99)  ( 46,  1, 99)  ( 43,  1, 99)  ( 47,  1, 99)
  1  0.9415E-02
   ( 47,  1, 99)


 FLOW MODEL IS TRANSIENT
 FLOW MODEL CONTAINS CONSTANT-HEAD CELLS


 MAXIMUM STEPSIZE DURING WHICH ANY PARTICLE CANNOT MOVE MORE THAN ONE CELL
 =  9.207    (WHEN MIN. R.F.=1)  AT K=   1, I=   1, J=  99

 MAXIMUM STEPSIZE WHICH MEETS STABILITY CRITERION OF THE ADVECTION TERM
 (FOR PURE FINITE-DIFFERENCE OPTION, MIXELM=0) 
 =  8.984    (WHEN MIN. R.F.=1)  AT K=   1, I=   1, J=  99


 TOTAL NUMBER OF POINT SOURCES/SINKS PRESENT IN THE FLOW MODEL =       100

 MAXIMUM STEPSIZE WHICH MEETS STABILITY CRITERION OF THE SINK & SOURCE TERM
 =  122.8    (WHEN MIN. R.F.=1)  AT K=   1, I=   1, J=   1

 MAXIMUM STEPSIZE WHICH MEETS STABILITY CRITERION OF THE DISPERSION TERM
 =  2.052    (WHEN MIN. R.F.=1)  AT K=   1, I=   1, J=  99
     5 CALLS TO GCG PACKAGE FOR TRANSPORT TIME STEP   4 IN FLOW TIME STEP   1 STRESS PERIOD   4
    15 TOTAL ITERATIONS
 
 SOLVING FOR HEAD 


     2 CALLS TO PCG ROUTINE FOR TIME STEP   1 IN STRESS PERIOD    4
    17 TOTAL ITERATIONS

 MAXIMUM HEAD CHANGE FOR EACH ITERATION (1 INDICATES THE FIRST INNER ITERATION):

    HEAD CHANGE    HEAD CHANGE    HEAD CHANGE    HEAD CHANGE    HEAD CHANGE 
   LAYER,ROW,COL  LAYER,ROW,COL  LAYER,ROW,COL  LAYER,ROW,COL  LAYER,ROW,COL
 ---------------------------------------------------------------------------
  1  0.1256E-02  0  0.4167E-03  0  0.2004E-03  0  0.1038E-03  0  0.6501E-04
   ( 50,  1, 61)  ( 48,  1, 69)  ( 46,  1, 74)  ( 42,  1, 78)  ( 38,  1, 80)
  0  0.3993E-04  0 -0.2293E-04  0 -0.1588E-04  0 -0.1012E-04  0 -0.7214E-05
   ( 50,  1, 79)  (  1,  1, 82)  (  3,  1, 63)  (  1,  1, 67)  (  2,  1, 53)
  0 -0.5112E-05  0 -0.3261E-05  0 -0.2181E-05  0 -0.1488E-05  0 -0.1137E-05
   (  1,  1, 57)  (  2,  1, 49)  (  4,  1, 44)  (  5,  1, 38)  (  5,  1, 29)
  0 -0.9839E-06  1 -0.2652E-06
   (  5,  1, 22)  ( 45,  1, 19)

 MAXIMUM RESIDUAL FOR EACH ITERATION (1 INDICATES THE FIRST INNER ITERATION):

    RESIDUAL       RESIDUAL       RESIDUAL       RESIDUAL       RESIDUAL    
   LAYER,ROW,COL  LAYER,ROW,COL  LAYER,ROW,COL  LAYER,ROW,COL  LAYER,ROW,COL
 ---------------------------------------------------------------------------
  1   8.874      0   5.668      0  -2.320      0  -1.382      0 -0.9876    
   ( 50,  1, 63)  ( 50,  1, 55)  ( 50,  1, 69)  ( 50,  1, 75)  ( 50,  1, 53)
  0 -0.5784      0 -0.4222      0  0.1975      0  0.1350      0  0.1193    
   ( 49,  1, 64)  ( 49,  1, 60)  ( 50,  1, 52)  ( 49,  1, 64)  ( 47,  1, 99)
  0  0.9882E-01  0  0.6558E-01  0 -0.5821E-01  0 -0.4213E-01  0  0.3636E-01
   ( 44,  1, 99)  ( 40,  1, 99)  ( 46,  1, 99)  ( 43,  1, 99)  ( 47,  1, 99)
  0  0.3296E-01  1  0.1200E-01
   ( 44,  1, 99)  ( 44,  1, 99)


 FLOW MODEL IS TRANSIENT
 FLOW MODEL CONTAINS CONSTANT-HEAD CELLS


 MAXIMUM STEPSIZE DURING WHICH ANY PARTICLE CANNOT MOVE MORE THAN ONE CELL
 =  9.212    (WHEN MIN. R.F.=1)  AT K=   1, I=   1, J=  99

 MAXIMUM STEPSIZE WHICH MEETS STABILITY CRITERION OF THE ADVECTION TERM
 (FOR PURE FINITE-DIFFERENCE OPTION, MIXELM=0) 
 =  8.989    (WHEN MIN. R.F.=1)  AT K=   1, I=   1, J=  99


 TOTAL NUMBER OF POINT SOURCES/SINKS PRESENT IN THE FLOW MODEL =       100

 MAXIMUM STEPSIZE WHICH MEETS STABILITY CRITERION OF THE SINK & SOURCE TERM
 =  122.8    (WHEN MIN. R.F.=1)  AT K=   1, I=   1, J=   1

 MAXIMUM STEPSIZE WHICH MEETS STABILITY CRITERION OF THE DISPERSION TERM
 =  2.053    (WHEN MIN. R.F.=1)  AT K=   1, I=   1, J=  99
     5 CALLS TO GCG PACKAGE FOR TRANSPORT TIME STEP   5 IN FLOW TIME STEP   1 STRESS PERIOD   4
    15 TOTAL ITERATIONS
 
 SOLVING FOR HEAD 


     2 CALLS TO PCG ROUTINE FOR TIME STEP   1 IN STRESS PERIOD    4
    21 TOTAL ITERATIONS

 MAXIMUM HEAD CHANGE FOR EACH ITERATION (1 INDICATES THE FIRST INNER ITERATION):

    HEAD CHANGE    HEAD CHANGE    HEAD CHANGE    HEAD CHANGE    HEAD CHANGE 
   LAYER,ROW,COL  LAYER,ROW,COL  LAYER,ROW,COL  LAYER,ROW,COL  LAYER,ROW,COL
 ---------------------------------------------------------------------------
  1  0.1251E-02  0  0.4145E-03  0  0.1997E-03  0  0.1034E-03  0  0.6482E-04
   ( 50,  1, 61)  ( 48,  1, 69)  ( 46,  1, 74)  ( 42,  1, 78)  ( 38,  1, 80)
  0  0.3990E-04  0 -0.2304E-04  0 -0.1566E-04  0 -0.1026E-04  0 -0.7405E-05
   ( 50,  1, 79)  (  1,  1, 82)  (  3,  1, 63)  (  1,  1, 67)  (  2,  1, 53)
  0 -0.5070E-05  0 -0.3228E-05  0 -0.2243E-05  0 -0.1630E-05  0 -0.1297E-05
   (  1,  1, 57)  (  2,  1, 49)  (  4,  1, 45)  (  2,  1, 38)  (  2,  1, 31)
  0 -0.1206E-05  0 -0.1198E-05  0 -0.1164E-05  0 -0.1026E-05  0 -0.9214E-06
   (  7,  1,  3)  (  1,  1,  4)  (  3,  1,  2)  (  5,  1,  2)  ( 49,  1, 14)
  1 -0.2437E-06
   ( 33,  1,  8)

 MAXIMUM RESIDUAL FOR EACH ITERATION (1 INDICATES THE FIRST INNER ITERATION):

    RESIDUAL       RESIDUAL       RESIDUAL       RESIDUAL       RESIDUAL    
   LAYER,ROW,COL  LAYER,ROW,COL  LAYER,ROW,COL  LAYER,ROW,COL  LAYER,ROW,COL
 ---------------------------------------------------------------------------
  1   8.854      0   5.651      0  -2.316      0  -1.379      0 -0.9853    
   ( 50,  1, 63)  ( 50,  1, 55)  ( 50,  1, 69)  ( 50,  1, 75)  ( 50,  1, 52)
  0 -0.5781      0 -0.4197      0  0.1951      0  0.1358      0  0.1189    
   ( 49,  1, 64)  ( 49,  1, 60)  ( 50,  1, 52)  ( 49,  1, 64)  ( 47,  1, 99)
  0  0.9826E-01  0  0.6619E-01  0 -0.5994E-01  0 -0.4471E-01  0  0.4124E-01
   ( 44,  1, 99)  ( 40,  1, 99)  ( 46,  1, 99)  ( 42,  1, 99)  ( 47,  1, 99)
  0  0.3892E-01  0 -0.3276E-01  0 -0.3809E-01  0 -0.3058E-01  0  0.2444E-01
   ( 44,  1, 99)  ( 48,  1, 99)  ( 46,  1, 99)  ( 43,  1, 99)  ( 48,  1, 99)
  1  0.9116E-02
   ( 48,  1, 99)


 FLOW MODEL IS TRANSIENT
 FLOW MODEL CONTAINS CONSTANT-HEAD CELLS


 MAXIMUM STEPSIZE DURING WHICH ANY PARTICLE CANNOT MOVE MORE THAN ONE CELL
 =  9.218    (WHEN MIN. R.F.=1)  AT K=   1, I=   1, J=  99

 MAXIMUM STEPSIZE WHICH MEETS STABILITY CRITERION OF THE ADVECTION TERM
 (FOR PURE FINITE-DIFFERENCE OPTION, MIXELM=0) 
 =  8.994    (WHEN MIN. R.F.=1)  AT K=   1, I=   1, J=  99


 TOTAL NUMBER OF POINT SOURCES/SINKS PRESENT IN THE FLOW MODEL =       100

 MAXIMUM STEPSIZE WHICH MEETS STABILITY CRITERION OF THE SINK & SOURCE TERM
 =  122.8    (WHEN MIN. R.F.=1)  AT K=   1, I=   1, J=   1

 MAXIMUM STEPSIZE WHICH MEETS STABILITY CRITERION OF THE DISPERSION TERM
 =  2.054    (WHEN MIN. R.F.=1)  AT K=   1, I=   1, J=  99
     5 CALLS TO GCG PACKAGE FOR TRANSPORT TIME STEP   6 IN FLOW TIME STEP   1 STRESS PERIOD   4
    15 TOTAL ITERATIONS
 
 SOLVING FOR HEAD 


     2 CALLS TO PCG ROUTINE FOR TIME STEP   1 IN STRESS PERIOD    4
    20 TOTAL ITERATIONS

 MAXIMUM HEAD CHANGE FOR EACH ITERATION (1 INDICATES THE FIRST INNER ITERATION):

    HEAD CHANGE    HEAD CHANGE    HEAD CHANGE    HEAD CHANGE    HEAD CHANGE 
   LAYER,ROW,COL  LAYER,ROW,COL  LAYER,ROW,COL  LAYER,ROW,COL  LAYER,ROW,COL
 ---------------------------------------------------------------------------
  1  0.1245E-02  0  0.4122E-03  0  0.1989E-03  0  0.1032E-03  0  0.6477E-04
   ( 50,  1, 61)  ( 48,  1, 68)  ( 46,  1, 74)  ( 42,  1, 77)  ( 38,  1, 80)
  0  0.3992E-04  0 -0.2260E-04  0 -0.1554E-04  0 -0.1002E-04  0 -0.7317E-05
   ( 50,  1, 79)  (  1,  1, 82)  (  3,  1, 63)  (  1,  1, 67)  (  2,  1, 53)
  0 -0.5048E-05  0 -0.3216E-05  0 -0.2203E-05  0 -0.1553E-05  0 -0.1227E-05
   (  1,  1, 57)  (  2,  1, 49)  (  4,  1, 44)  (  5,  1, 38)  (  4,  1, 28)
  0 -0.1145E-05  0 -0.1124E-05  0 -0.1098E-05  0 -0.9944E-06  1 -0.2917E-06
   (  7,  1,  3)  (  3,  1,  5)  (  1,  1,  8)  (  5,  1,  2)  ( 39,  1,  7)

 MAXIMUM RESIDUAL FOR EACH ITERATION (1 INDICATES THE FIRST INNER ITERATION):

    RESIDUAL       RESIDUAL       RESIDUAL       RESIDUAL       RESIDUAL    
   LAYER,ROW,COL  LAYER,ROW,COL  LAYER,ROW,COL  LAYER,ROW,COL  LAYER,ROW,COL
 ---------------------------------------------------------------------------
  1   8.825      0   5.617      0  -2.306      0  -1.377      0 -0.9848    
   ( 50,  1, 63)  ( 50,  1, 55)  ( 50,  1, 69)  ( 50,  1, 74)  ( 50,  1, 52)
  0 -0.5757      0 -0.4174      0  0.1931      0  0.1340      0  0.1165    
   ( 49,  1, 64)  ( 49,  1, 60)  ( 50,  1, 51)  ( 49,  1, 64)  ( 47,  1, 99)
  0  0.9679E-01  0  0.6512E-01  0 -0.5859E-01  0 -0.4311E-01  0  0.3916E-01
   ( 44,  1, 99)  ( 40,  1, 99)  ( 46,  1, 99)  ( 43,  1, 99)  ( 47,  1, 99)
  0  0.3651E-01  0 -0.3042E-01  0 -0.3568E-01  0 -0.2917E-01  1 -0.1173E-01
   ( 44,  1, 99)  ( 48,  1, 99)  ( 46,  1, 99)  ( 43,  1, 99)  ( 43,  1, 99)


 FLOW MODEL IS TRANSIENT
 FLOW MODEL CONTAINS CONSTANT-HEAD CELLS


 MAXIMUM STEPSIZE DURING WHICH ANY PARTICLE CANNOT MOVE MORE THAN ONE CELL
 =  9.223    (WHEN MIN. R.F.=1)  AT K=   1, I=   1, J=  99

 MAXIMUM STEPSIZE WHICH MEETS STABILITY CRITERION OF THE ADVECTION TERM
 (FOR PURE FINITE-DIFFERENCE OPTION, MIXELM=0) 
 =  8.999    (WHEN MIN. R.F.=1)  AT K=   1, I=   1, J=  99


 TOTAL NUMBER OF POINT SOURCES/SINKS PRESENT IN THE FLOW MODEL =       100

 MAXIMUM STEPSIZE WHICH MEETS STABILITY CRITERION OF THE SINK & SOURCE TERM
 =  122.8    (WHEN MIN. R.F.=1)  AT K=   1, I=   1, J=   1

 MAXIMUM STEPSIZE WHICH MEETS STABILITY CRITERION OF THE DISPERSION TERM
 =  2.055    (WHEN MIN. R.F.=1)  AT K=   1, I=   1, J=  99
     5 CALLS TO GCG PACKAGE FOR TRANSPORT TIME STEP   7 IN FLOW TIME STEP   1 STRESS PERIOD   4
    15 TOTAL ITERATIONS
 
 SOLVING FOR HEAD 


     2 CALLS TO PCG ROUTINE FOR TIME STEP   1 IN STRESS PERIOD    4
    20 TOTAL ITERATIONS

 MAXIMUM HEAD CHANGE FOR EACH ITERATION (1 INDICATES THE FIRST INNER ITERATION):

    HEAD CHANGE    HEAD CHANGE    HEAD CHANGE    HEAD CHANGE    HEAD CHANGE 
   LAYER,ROW,COL  LAYER,ROW,COL  LAYER,ROW,COL  LAYER,ROW,COL  LAYER,ROW,COL
 ---------------------------------------------------------------------------
  1  0.1239E-02  0  0.4103E-03  0  0.1980E-03  0  0.1028E-03  0  0.6432E-04
   ( 50,  1, 61)  ( 48,  1, 68)  ( 46,  1, 74)  ( 42,  1, 77)  ( 38,  1, 80)
  0  0.3983E-04  0 -0.2249E-04  0 -0.1531E-04  0 -0.9769E-05  0 -0.7204E-05
   ( 50,  1, 78)  (  1,  1, 82)  (  3,  1, 63)  (  1,  1, 67)  (  2,  1, 52)
  0 -0.5192E-05  0 -0.3371E-05  0 -0.2279E-05  0 -0.1580E-05  0 -0.1322E-05
   (  1,  1, 56)  (  2,  1, 48)  (  4,  1, 43)  (  4,  1, 35)  (  4,  1, 26)
  0 -0.1275E-05  0 -0.1260E-05  0 -0.1209E-05  0 -0.9936E-06  1 -0.3003E-06
   (  7,  1,  3)  (  2,  1,  5)  (  4,  1,  2)  ( 16,  1,  4)  ( 39,  1,  7)

 MAXIMUM RESIDUAL FOR EACH ITERATION (1 INDICATES THE FIRST INNER ITERATION):

    RESIDUAL       RESIDUAL       RESIDUAL       RESIDUAL       RESIDUAL    
   LAYER,ROW,COL  LAYER,ROW,COL  LAYER,ROW,COL  LAYER,ROW,COL  LAYER,ROW,COL
 ---------------------------------------------------------------------------
  1   8.785      0   5.570      0  -2.294      0  -1.378      0 -0.9850    
   ( 50,  1, 63)  ( 50,  1, 55)  ( 50,  1, 68)  ( 50,  1, 74)  ( 50,  1, 52)
  0 -0.5737      0 -0.4173      0  0.1965      0  0.1341      0  0.1131    
   ( 49,  1, 64)  ( 49,  1, 60)  ( 50,  1, 51)  ( 49,  1, 64)  ( 47,  1, 99)
  0  0.9691E-01  0  0.6644E-01  0 -0.5924E-01  0 -0.4411E-01  0  0.4057E-01
   ( 44,  1, 99)  ( 41,  1, 99)  ( 46,  1, 99)  ( 43,  1, 99)  ( 47,  1, 99)
  0  0.3832E-01  0 -0.3235E-01  0 -0.3741E-01  0 -0.3010E-01  1 -0.1212E-01
   ( 44,  1, 99)  ( 48,  1, 99)  ( 46,  1, 99)  ( 43,  1, 99)  ( 43,  1, 99)


 FLOW MODEL IS TRANSIENT
 FLOW MODEL CONTAINS CONSTANT-HEAD CELLS


 MAXIMUM STEPSIZE DURING WHICH ANY PARTICLE CANNOT MOVE MORE THAN ONE CELL
 =  9.228    (WHEN MIN. R.F.=1)  AT K=   1, I=   1, J=  99

 MAXIMUM STEPSIZE WHICH MEETS STABILITY CRITERION OF THE ADVECTION TERM
 (FOR PURE FINITE-DIFFERENCE OPTION, MIXELM=0) 
 =  9.004    (WHEN MIN. R.F.=1)  AT K=   1, I=   1, J=  99


 TOTAL NUMBER OF POINT SOURCES/SINKS PRESENT IN THE FLOW MODEL =       100

 MAXIMUM STEPSIZE WHICH MEETS STABILITY CRITERION OF THE SINK & SOURCE TERM
 =  122.8    (WHEN MIN. R.F.=1)  AT K=   1, I=   1, J=   1

 MAXIMUM STEPSIZE WHICH MEETS STABILITY CRITERION OF THE DISPERSION TERM
 =  2.056    (WHEN MIN. R.F.=1)  AT K=   1, I=   1, J=  99
     5 CALLS TO GCG PACKAGE FOR TRANSPORT TIME STEP   8 IN FLOW TIME STEP   1 STRESS PERIOD   4
    15 TOTAL ITERATIONS
 
 SOLVING FOR HEAD 


     2 CALLS TO PCG ROUTINE FOR TIME STEP   1 IN STRESS PERIOD    4
    20 TOTAL ITERATIONS

 MAXIMUM HEAD CHANGE FOR EACH ITERATION (1 INDICATES THE FIRST INNER ITERATION):

    HEAD CHANGE    HEAD CHANGE    HEAD CHANGE    HEAD CHANGE    HEAD CHANGE 
   LAYER,ROW,COL  LAYER,ROW,COL  LAYER,ROW,COL  LAYER,ROW,COL  LAYER,ROW,COL
 ---------------------------------------------------------------------------
  1  0.1232E-02  0  0.4085E-03  0  0.1971E-03  0  0.1027E-03  0  0.6433E-04
   ( 50,  1, 61)  ( 48,  1, 68)  ( 46,  1, 73)  ( 42,  1, 77)  ( 38,  1, 79)
  0  0.3986E-04  0 -0.2224E-04  0 -0.1526E-04  0 -0.9911E-05  0 -0.6916E-05
   ( 50,  1, 78)  (  1,  1, 82)  (  3,  1, 62)  (  1,  1, 66)  (  2,  1, 53)
  0 -0.4906E-05  0 -0.3232E-05  0 -0.2180E-05  0 -0.1489E-05  0 -0.1206E-05
   (  1,  1, 56)  (  2,  1, 48)  (  4,  1, 43)  (  5,  1, 37)  (  4,  1, 26)
  0 -0.1139E-05  0 -0.1117E-05  0 -0.1103E-05  0 -0.9269E-06  1 -0.2809E-06
   (  7,  1,  3)  (  2,  1,  5)  (  4,  1,  2)  (  7,  1,  2)  ( 39,  1,  7)

 MAXIMUM RESIDUAL FOR EACH ITERATION (1 INDICATES THE FIRST INNER ITERATION):

    RESIDUAL       RESIDUAL       RESIDUAL       RESIDUAL       RESIDUAL    
   LAYER,ROW,COL  LAYER,ROW,COL  LAYER,ROW,COL  LAYER,ROW,COL  LAYER,ROW,COL
 ---------------------------------------------------------------------------
  1   8.745      0   5.556      0  -2.294      0  -1.374      0 -0.9825    
   ( 50,  1, 63)  ( 50,  1, 54)  ( 50,  1, 68)  ( 50,  1, 74)  ( 50,  1, 52)
  0 -0.5727      0 -0.4145      0  0.1935      0  0.1331      0  0.1113    
   ( 49,  1, 63)  ( 49,  1, 59)  ( 50,  1, 51)  ( 49,  1, 63)  ( 47,  1, 99)
  0  0.9459E-01  0  0.6476E-01  0 -0.5718E-01  0 -0.4201E-01  0  0.3746E-01
   ( 44,  1, 99)  ( 41,  1, 99)  ( 46,  1, 99)  ( 43,  1, 99)  ( 47,  1, 99)
  0  0.3475E-01  0 -0.2893E-01  0 -0.3381E-01  0 -0.2780E-01  1 -0.1092E-01
   ( 44,  1, 99)  ( 48,  1, 99)  ( 46,  1, 99)  ( 43,  1, 99)  ( 43,  1, 99)


 FLOW MODEL IS TRANSIENT
 FLOW MODEL CONTAINS CONSTANT-HEAD CELLS


 MAXIMUM STEPSIZE DURING WHICH ANY PARTICLE CANNOT MOVE MORE THAN ONE CELL
 =  9.232    (WHEN MIN. R.F.=1)  AT K=   1, I=   1, J=  99

 MAXIMUM STEPSIZE WHICH MEETS STABILITY CRITERION OF THE ADVECTION TERM
 (FOR PURE FINITE-DIFFERENCE OPTION, MIXELM=0) 
 =  9.009    (WHEN MIN. R.F.=1)  AT K=   1, I=   1, J=  99


 TOTAL NUMBER OF POINT SOURCES/SINKS PRESENT IN THE FLOW MODEL =       100

 MAXIMUM STEPSIZE WHICH MEETS STABILITY CRITERION OF THE SINK & SOURCE TERM
 =  122.8    (WHEN MIN. R.F.=1)  AT K=   1, I=   1, J=   1

 MAXIMUM STEPSIZE WHICH MEETS STABILITY CRITERION OF THE DISPERSION TERM
 =  2.057    (WHEN MIN. R.F.=1)  AT K=   1, I=   1, J=  99
     5 CALLS TO GCG PACKAGE FOR TRANSPORT TIME STEP   9 IN FLOW TIME STEP   1 STRESS PERIOD   4
    15 TOTAL ITERATIONS
 
 SOLVING FOR HEAD 


     2 CALLS TO PCG ROUTINE FOR TIME STEP   1 IN STRESS PERIOD    4
    20 TOTAL ITERATIONS

 MAXIMUM HEAD CHANGE FOR EACH ITERATION (1 INDICATES THE FIRST INNER ITERATION):

    HEAD CHANGE    HEAD CHANGE    HEAD CHANGE    HEAD CHANGE    HEAD CHANGE 
   LAYER,ROW,COL  LAYER,ROW,COL  LAYER,ROW,COL  LAYER,ROW,COL  LAYER,ROW,COL
 ---------------------------------------------------------------------------
  1  0.1227E-02  0  0.4066E-03  0  0.1966E-03  0  0.1025E-03  0  0.6436E-04
   ( 50,  1, 60)  ( 48,  1, 68)  ( 46,  1, 73)  ( 42,  1, 77)  ( 38,  1, 79)
  0  0.3986E-04  0 -0.2217E-04  0 -0.1507E-04  0 -0.9669E-05  0 -0.7097E-05
   ( 50,  1, 78)  (  1,  1, 82)  (  3,  1, 63)  (  1,  1, 66)  (  2,  1, 52)
  0 -0.4975E-05  0 -0.3205E-05  0 -0.2164E-05  0 -0.1476E-05  0 -0.1185E-05
   (  1,  1, 56)  (  2,  1, 48)  (  4,  1, 43)  (  5,  1, 37)  (  4,  1, 26)
  0 -0.1147E-05  0 -0.1134E-05  0 -0.1104E-05  0 -0.9200E-06  1 -0.2698E-06
   (  7,  1,  3)  (  3,  1,  5)  (  5,  1,  2)  ( 16,  1,  4)  ( 40,  1,  7)

 MAXIMUM RESIDUAL FOR EACH ITERATION (1 INDICATES THE FIRST INNER ITERATION):

    RESIDUAL       RESIDUAL       RESIDUAL       RESIDUAL       RESIDUAL    
   LAYER,ROW,COL  LAYER,ROW,COL  LAYER,ROW,COL  LAYER,ROW,COL  LAYER,ROW,COL
 ---------------------------------------------------------------------------
  1   8.698      0   5.556      0  -2.290      0  -1.372      0 -0.9810    
   ( 50,  1, 63)  ( 50,  1, 54)  ( 50,  1, 68)  ( 50,  1, 74)  ( 50,  1, 52)
  0 -0.5717      0 -0.4140      0  0.1925      0  0.1326      0  0.1097    
   ( 49,  1, 63)  ( 49,  1, 59)  ( 50,  1, 51)  ( 49,  1, 63)  ( 47,  1, 99)
  0  0.9335E-01  0  0.6426E-01  0 -0.5666E-01  0 -0.4165E-01  0  0.3721E-01
   ( 44,  1, 99)  ( 41,  1, 99)  ( 46,  1, 99)  ( 43,  1, 99)  ( 47,  1, 99)
  0  0.3456E-01  0 -0.2874E-01  0 -0.3358E-01  0 -0.2773E-01  1 -0.1118E-01
   ( 44,  1, 99)  ( 48,  1, 99)  ( 46,  1, 99)  ( 43,  1, 99)  ( 43,  1, 99)


 FLOW MODEL IS TRANSIENT
 FLOW MODEL CONTAINS CONSTANT-HEAD CELLS


 MAXIMUM STEPSIZE DURING WHICH ANY PARTICLE CANNOT MOVE MORE THAN ONE CELL
 =  9.237    (WHEN MIN. R.F.=1)  AT K=   1, I=   1, J=  99

 MAXIMUM STEPSIZE WHICH MEETS STABILITY CRITERION OF THE ADVECTION TERM
 (FOR PURE FINITE-DIFFERENCE OPTION, MIXELM=0) 
 =  9.013    (WHEN MIN. R.F.=1)  AT K=   1, I=   1, J=  99


 TOTAL NUMBER OF POINT SOURCES/SINKS PRESENT IN THE FLOW MODEL =       100

 MAXIMUM STEPSIZE WHICH MEETS STABILITY CRITERION OF THE SINK & SOURCE TERM
 =  122.8    (WHEN MIN. R.F.=1)  AT K=   1, I=   1, J=   1

 MAXIMUM STEPSIZE WHICH MEETS STABILITY CRITERION OF THE DISPERSION TERM
 =  2.058    (WHEN MIN. R.F.=1)  AT K=   1, I=   1, J=  99
     5 CALLS TO GCG PACKAGE FOR TRANSPORT TIME STEP  10 IN FLOW TIME STEP   1 STRESS PERIOD   4
    15 TOTAL ITERATIONS
 
 SOLVING FOR HEAD 


     2 CALLS TO PCG ROUTINE FOR TIME STEP   1 IN STRESS PERIOD    4
    20 TOTAL ITERATIONS

 MAXIMUM HEAD CHANGE FOR EACH ITERATION (1 INDICATES THE FIRST INNER ITERATION):

    HEAD CHANGE    HEAD CHANGE    HEAD CHANGE    HEAD CHANGE    HEAD CHANGE 
   LAYER,ROW,COL  LAYER,ROW,COL  LAYER,ROW,COL  LAYER,ROW,COL  LAYER,ROW,COL
 ---------------------------------------------------------------------------
  1  0.1222E-02  0  0.4044E-03  0  0.1961E-03  0  0.1023E-03  0  0.6424E-04
   ( 50,  1, 60)  ( 48,  1, 68)  ( 46,  1, 73)  ( 42,  1, 77)  ( 38,  1, 79)
  0  0.3981E-04  0 -0.2209E-04  0 -0.1518E-04  0 -0.9863E-05  0 -0.6967E-05
   ( 50,  1, 78)  (  1,  1, 81)  (  3,  1, 62)  (  1,  1, 65)  (  2,  1, 52)
  0 -0.4958E-05  0 -0.3268E-05  0 -0.2225E-05  0 -0.1547E-05  0 -0.1283E-05
   (  1,  1, 56)  (  2,  1, 48)  (  3,  1, 41)  (  5,  1, 36)  (  4,  1, 26)
  0 -0.1237E-05  0 -0.1215E-05  0 -0.1179E-05  0 -0.9721E-06  1 -0.2997E-06
   (  7,  1,  3)  (  2,  1,  4)  (  4,  1,  2)  (  6,  1,  2)  ( 39,  1,  7)

 MAXIMUM RESIDUAL FOR EACH ITERATION (1 INDICATES THE FIRST INNER ITERATION):

    RESIDUAL       RESIDUAL       RESIDUAL       RESIDUAL       RESIDUAL    
   LAYER,ROW,COL  LAYER,ROW,COL  LAYER,ROW,COL  LAYER,ROW,COL  LAYER,ROW,COL
 ---------------------------------------------------------------------------
  1   8.663      0   5.547      0  -2.285      0  -1.369      0 -0.9792    
   ( 50,  1, 62)  ( 50,  1, 54)  ( 50,  1, 68)  ( 50,  1, 74)  ( 50,  1, 52)
  0 -0.5712      0 -0.4138      0  0.1926      0  0.1327      0  0.1077    
   ( 49,  1, 63)  ( 49,  1, 59)  ( 50,  1, 51)  ( 49,  1, 63)  ( 47,  1, 99)
  0  0.9281E-01  0  0.6458E-01  0 -0.5722E-01  0 -0.4263E-01  0  0.3900E-01
   ( 44,  1, 99)  ( 41,  1, 99)  ( 46,  1, 99)  ( 43,  1, 99)  ( 47,  1, 99)
  0  0.3697E-01  0 -0.3092E-01  0 -0.3585E-01  0 -0.2930E-01  1 -0.1164E-01
   ( 44,  1, 99)  ( 48,  1, 99)  ( 46,  1, 99)  ( 43,  1, 99)  ( 43,  1, 99)


 FLOW MODEL IS TRANSIENT
 FLOW MODEL CONTAINS CONSTANT-HEAD CELLS


 MAXIMUM STEPSIZE DURING WHICH ANY PARTICLE CANNOT MOVE MORE THAN ONE CELL
 =  9.242    (WHEN MIN. R.F.=1)  AT K=   1, I=   1, J=  99

 MAXIMUM STEPSIZE WHICH MEETS STABILITY CRITERION OF THE ADVECTION TERM
 (FOR PURE FINITE-DIFFERENCE OPTION, MIXELM=0) 
 =  9.018    (WHEN MIN. R.F.=1)  AT K=   1, I=   1, J=  99


 TOTAL NUMBER OF POINT SOURCES/SINKS PRESENT IN THE FLOW MODEL =       100

 MAXIMUM STEPSIZE WHICH MEETS STABILITY CRITERION OF THE SINK & SOURCE TERM
 =  122.8    (WHEN MIN. R.F.=1)  AT K=   1, I=   1, J=   1

 MAXIMUM STEPSIZE WHICH MEETS STABILITY CRITERION OF THE DISPERSION TERM
 =  2.059    (WHEN MIN. R.F.=1)  AT K=   1, I=   1, J=  99
     5 CALLS TO GCG PACKAGE FOR TRANSPORT TIME STEP  11 IN FLOW TIME STEP   1 STRESS PERIOD   4
    15 TOTAL ITERATIONS
 
 SOLVING FOR HEAD 


     2 CALLS TO PCG ROUTINE FOR TIME STEP   1 IN STRESS PERIOD    4
    17 TOTAL ITERATIONS

 MAXIMUM HEAD CHANGE FOR EACH ITERATION (1 INDICATES THE FIRST INNER ITERATION):

    HEAD CHANGE    HEAD CHANGE    HEAD CHANGE    HEAD CHANGE    HEAD CHANGE 
   LAYER,ROW,COL  LAYER,ROW,COL  LAYER,ROW,COL  LAYER,ROW,COL  LAYER,ROW,COL
 ---------------------------------------------------------------------------
  1  0.1217E-02  0  0.4022E-03  0  0.1953E-03  0  0.1020E-03  0  0.6420E-04
   ( 50,  1, 60)  ( 48,  1, 68)  ( 46,  1, 73)  ( 42,  1, 77)  ( 38,  1, 79)
  0  0.3978E-04  0 -0.2204E-04  0 -0.1478E-04  0 -0.9476E-05  0 -0.7002E-05
   ( 50,  1, 78)  (  3,  1, 73)  (  3,  1, 63)  (  1,  1, 66)  (  2,  1, 52)
  0 -0.4893E-05  0 -0.3101E-05  0 -0.2048E-05  0 -0.1352E-05  0 -0.1045E-05
   (  1,  1, 56)  (  2,  1, 48)  (  4,  1, 42)  (  5,  1, 37)  (  4,  1, 25)
  0 -0.9624E-06  1 -0.2463E-06
   (  8,  1,  3)  (  2,  1, 78)

 MAXIMUM RESIDUAL FOR EACH ITERATION (1 INDICATES THE FIRST INNER ITERATION):

    RESIDUAL       RESIDUAL       RESIDUAL       RESIDUAL       RESIDUAL    
   LAYER,ROW,COL  LAYER,ROW,COL  LAYER,ROW,COL  LAYER,ROW,COL  LAYER,ROW,COL
 ---------------------------------------------------------------------------
  1   8.637      0   5.529      0  -2.276      0  -1.364      0 -0.9762    
   ( 50,  1, 62)  ( 50,  1, 54)  ( 50,  1, 68)  ( 50,  1, 74)  ( 50,  1, 52)
  0 -0.5700      0 -0.4125      0  0.1909      0  0.1315      0  0.1050    
   ( 49,  1, 63)  ( 49,  1, 59)  ( 50,  1, 51)  ( 49,  1, 63)  ( 47,  1, 99)
  0  0.9022E-01  0  0.6272E-01  0 -0.5384E-01  0 -0.3899E-01  0  0.3300E-01
   ( 44,  1, 99)  ( 41,  1, 99)  ( 46,  1, 99)  ( 43,  1, 99)  ( 47,  1, 99)
  0  0.2986E-01  1  0.1024E-01
   ( 44,  1, 99)  ( 44,  1, 99)


 FLOW MODEL IS TRANSIENT
 FLOW MODEL CONTAINS CONSTANT-HEAD CELLS


 MAXIMUM STEPSIZE DURING WHICH ANY PARTICLE CANNOT MOVE MORE THAN ONE CELL
 =  9.247    (WHEN MIN. R.F.=1)  AT K=   1, I=   1, J=  99

 MAXIMUM STEPSIZE WHICH MEETS STABILITY CRITERION OF THE ADVECTION TERM
 (FOR PURE FINITE-DIFFERENCE OPTION, MIXELM=0) 
 =  9.022    (WHEN MIN. R.F.=1)  AT K=   1, I=   1, J=  99


 TOTAL NUMBER OF POINT SOURCES/SINKS PRESENT IN THE FLOW MODEL =       100

 MAXIMUM STEPSIZE WHICH MEETS STABILITY CRITERION OF THE SINK & SOURCE TERM
 =  122.8    (WHEN MIN. R.F.=1)  AT K=   1, I=   1, J=   1

 MAXIMUM STEPSIZE WHICH MEETS STABILITY CRITERION OF THE DISPERSION TERM
 =  2.060    (WHEN MIN. R.F.=1)  AT K=   1, I=   1, J=  99
     5 CALLS TO GCG PACKAGE FOR TRANSPORT TIME STEP  12 IN FLOW TIME STEP   1 STRESS PERIOD   4
    15 TOTAL ITERATIONS
 
 SOLVING FOR HEAD 


     2 CALLS TO PCG ROUTINE FOR TIME STEP   1 IN STRESS PERIOD    4
    21 TOTAL ITERATIONS

 MAXIMUM HEAD CHANGE FOR EACH ITERATION (1 INDICATES THE FIRST INNER ITERATION):

    HEAD CHANGE    HEAD CHANGE    HEAD CHANGE    HEAD CHANGE    HEAD CHANGE 
   LAYER,ROW,COL  LAYER,ROW,COL  LAYER,ROW,COL  LAYER,ROW,COL  LAYER,ROW,COL
 ---------------------------------------------------------------------------
  1  0.1212E-02  0  0.3998E-03  0  0.1946E-03  0  0.1017E-03  0  0.6402E-04
   ( 50,  1, 60)  ( 48,  1, 68)  ( 46,  1, 73)  ( 42,  1, 77)  ( 38,  1, 79)
  0  0.3964E-04  0 -0.2241E-04  0 -0.1460E-04  0 -0.9328E-05  0 -0.7518E-05
   ( 50,  1, 78)  (  3,  1, 73)  (  3,  1, 64)  (  1,  1, 66)  (  2,  1, 52)
  0 -0.5161E-05  0 -0.3187E-05  0 -0.2160E-05  0 -0.1535E-05  0 -0.1254E-05
   (  1,  1, 56)  (  2,  1, 48)  (  5,  1, 45)  (  1,  1, 36)  (  4,  1, 25)
  0 -0.1230E-05  0 -0.1206E-05  0 -0.1168E-05  0 -0.1019E-05  0 -0.9252E-06
   (  8,  1,  3)  (  4,  1,  5)  (  9,  1,  1)  (  6,  1,  3)  ( 49,  1, 13)
  1 -0.2327E-06
   ( 34,  1,  8)

 MAXIMUM RESIDUAL FOR EACH ITERATION (1 INDICATES THE FIRST INNER ITERATION):

    RESIDUAL       RESIDUAL       RESIDUAL       RESIDUAL       RESIDUAL    
   LAYER,ROW,COL  LAYER,ROW,COL  LAYER,ROW,COL  LAYER,ROW,COL  LAYER,ROW,COL
 ---------------------------------------------------------------------------
  1   8.608      0   5.502      0  -2.268      0  -1.363      0 -0.9757    
   ( 50,  1, 62)  ( 50,  1, 54)  ( 50,  1, 68)  ( 50,  1, 73)  ( 50,  1, 51)
  0 -0.5684      0 -0.4118      0  0.1909      0  0.1325      0  0.1045    
   ( 49,  1, 63)  ( 49,  1, 59)  ( 50,  1, 51)  ( 49,  1, 63)  ( 47,  1, 99)
  0  0.9057E-01  0  0.6367E-01  0 -0.5620E-01  0 -0.4216E-01  0  0.3831E-01
   ( 44,  1, 99)  ( 41,  1, 99)  ( 46,  1, 99)  ( 43,  1, 99)  ( 47,  1, 99)
  0  0.3671E-01  0  0.3122E-01  0 -0.3534E-01  0 -0.2948E-01  0  0.2351E-01
   ( 44,  1, 99)  ( 41,  1, 99)  ( 46,  1, 99)  ( 44,  1, 99)  ( 48,  1, 99)
  1  0.8709E-02
   ( 48,  1, 99)


 FLOW MODEL IS TRANSIENT
 FLOW MODEL CONTAINS CONSTANT-HEAD CELLS


 MAXIMUM STEPSIZE DURING WHICH ANY PARTICLE CANNOT MOVE MORE THAN ONE CELL
 =  9.251    (WHEN MIN. R.F.=1)  AT K=   1, I=   1, J=  99

 MAXIMUM STEPSIZE WHICH MEETS STABILITY CRITERION OF THE ADVECTION TERM
 (FOR PURE FINITE-DIFFERENCE OPTION, MIXELM=0) 
 =  9.027    (WHEN MIN. R.F.=1)  AT K=   1, I=   1, J=  99


 TOTAL NUMBER OF POINT SOURCES/SINKS PRESENT IN THE FLOW MODEL =       100

 MAXIMUM STEPSIZE WHICH MEETS STABILITY CRITERION OF THE SINK & SOURCE TERM
 =  122.8    (WHEN MIN. R.F.=1)  AT K=   1, I=   1, J=   1

 MAXIMUM STEPSIZE WHICH MEETS STABILITY CRITERION OF THE DISPERSION TERM
 =  2.061    (WHEN MIN. R.F.=1)  AT K=   1, I=   1, J=  99
     5 CALLS TO GCG PACKAGE FOR TRANSPORT TIME STEP  13 IN FLOW TIME STEP   1 STRESS PERIOD   4
    15 TOTAL ITERATIONS
 
 SOLVING FOR HEAD 


     2 CALLS TO PCG ROUTINE FOR TIME STEP   1 IN STRESS PERIOD    4
    20 TOTAL ITERATIONS

 MAXIMUM HEAD CHANGE FOR EACH ITERATION (1 INDICATES THE FIRST INNER ITERATION):

    HEAD CHANGE    HEAD CHANGE    HEAD CHANGE    HEAD CHANGE    HEAD CHANGE 
   LAYER,ROW,COL  LAYER,ROW,COL  LAYER,ROW,COL  LAYER,ROW,COL  LAYER,ROW,COL
 ---------------------------------------------------------------------------
  1  0.1206E-02  0  0.3980E-03  0  0.1940E-03  0  0.1017E-03  0  0.6418E-04
   ( 50,  1, 60)  ( 48,  1, 67)  ( 46,  1, 73)  ( 42,  1, 76)  ( 38,  1, 79)
  0  0.3961E-04  0 -0.2215E-04  0 -0.1446E-04  0 -0.9173E-05  0 -0.7455E-05
   ( 50,  1, 78)  (  3,  1, 73)  (  3,  1, 64)  (  1,  1, 65)  (  2,  1, 52)
  0 -0.5063E-05  0 -0.3060E-05  0 -0.2041E-05  0 -0.1412E-05  0 -0.1105E-05
   (  1,  1, 56)  (  2,  1, 48)  (  4,  1, 43)  (  1,  1, 36)  (  2,  1, 31)
  0 -0.1044E-05  0 -0.1023E-05  0 -0.1016E-05  0 -0.9416E-06  1 -0.2655E-06
   (  8,  1,  3)  (  4,  1,  5)  (  9,  1,  1)  (  6,  1,  3)  ( 39,  1,  7)

 MAXIMUM RESIDUAL FOR EACH ITERATION (1 INDICATES THE FIRST INNER ITERATION):

    RESIDUAL       RESIDUAL       RESIDUAL       RESIDUAL       RESIDUAL    
   LAYER,ROW,COL  LAYER,ROW,COL  LAYER,ROW,COL  LAYER,ROW,COL  LAYER,ROW,COL
 ---------------------------------------------------------------------------
  1   8.573      0   5.462      0  -2.257      0  -1.358      0 -0.9742    
   ( 50,  1, 62)  ( 50,  1, 54)  ( 50,  1, 68)  ( 50,  1, 73)  ( 50,  1, 51)
  0 -0.5668      0 -0.4085      0  0.1890      0  0.1308      0  0.1020    
   ( 49,  1, 63)  ( 49,  1, 59)  ( 50,  1, 50)  ( 49,  1, 62)  ( 47,  1, 99)
  0  0.8839E-01  0  0.6189E-01  0 -0.5369E-01  0 -0.3938E-01  0  0.3430E-01
   ( 44,  1, 99)  ( 41,  1, 99)  ( 46,  1, 99)  ( 43,  1, 99)  ( 47,  1, 99)
  0  0.3189E-01  0  0.2681E-01  0 -0.3035E-01  0 -0.2624E-01  1 -0.1064E-01
   ( 44,  1, 99)  ( 41,  1, 99)  ( 46,  1, 99)  ( 44,  1, 99)  ( 43,  1, 99)


 FLOW MODEL IS TRANSIENT
 FLOW MODEL CONTAINS CONSTANT-HEAD CELLS


 MAXIMUM STEPSIZE DURING WHICH ANY PARTICLE CANNOT MOVE MORE THAN ONE CELL
 =  9.256    (WHEN MIN. R.F.=1)  AT K=   1, I=   1, J=  99

 MAXIMUM STEPSIZE WHICH MEETS STABILITY CRITERION OF THE ADVECTION TERM
 (FOR PURE FINITE-DIFFERENCE OPTION, MIXELM=0) 
 =  9.031    (WHEN MIN. R.F.=1)  AT K=   1, I=   1, J=  99


 TOTAL NUMBER OF POINT SOURCES/SINKS PRESENT IN THE FLOW MODEL =       100

 MAXIMUM STEPSIZE WHICH MEETS STABILITY CRITERION OF THE SINK & SOURCE TERM
 =  122.8    (WHEN MIN. R.F.=1)  AT K=   1, I=   1, J=   1

 MAXIMUM STEPSIZE WHICH MEETS STABILITY CRITERION OF THE DISPERSION TERM
 =  2.062    (WHEN MIN. R.F.=1)  AT K=   1, I=   1, J=  99
     5 CALLS TO GCG PACKAGE FOR TRANSPORT TIME STEP  14 IN FLOW TIME STEP   1 STRESS PERIOD   4
    15 TOTAL ITERATIONS
 
 SOLVING FOR HEAD 


     2 CALLS TO PCG ROUTINE FOR TIME STEP   1 IN STRESS PERIOD    4
    18 TOTAL ITERATIONS

 MAXIMUM HEAD CHANGE FOR EACH ITERATION (1 INDICATES THE FIRST INNER ITERATION):

    HEAD CHANGE    HEAD CHANGE    HEAD CHANGE    HEAD CHANGE    HEAD CHANGE 
   LAYER,ROW,COL  LAYER,ROW,COL  LAYER,ROW,COL  LAYER,ROW,COL  LAYER,ROW,COL
 ---------------------------------------------------------------------------
  1  0.1200E-02  0  0.3962E-03  0  0.1931E-03  0  0.1013E-03  0  0.6381E-04
   ( 50,  1, 60)  ( 48,  1, 67)  ( 46,  1, 73)  ( 42,  1, 76)  ( 38,  1, 79)
  0  0.3950E-04  0 -0.2183E-04  0 -0.1452E-04  0 -0.9360E-05  0 -0.7035E-05
   ( 50,  1, 77)  (  1,  1, 81)  (  3,  1, 62)  (  1,  1, 65)  (  2,  1, 51)
  0 -0.5014E-05  0 -0.3175E-05  0 -0.2064E-05  0 -0.1367E-05  0 -0.1090E-05
   (  1,  1, 55)  (  2,  1, 47)  (  4,  1, 42)  (  5,  1, 35)  (  4,  1, 25)
  0 -0.1002E-05  0 -0.9698E-06  1 -0.2376E-06
   (  8,  1,  3)  (  2,  1,  4)  ( 47,  1, 16)

 MAXIMUM RESIDUAL FOR EACH ITERATION (1 INDICATES THE FIRST INNER ITERATION):

    RESIDUAL       RESIDUAL       RESIDUAL       RESIDUAL       RESIDUAL    
   LAYER,ROW,COL  LAYER,ROW,COL  LAYER,ROW,COL  LAYER,ROW,COL  LAYER,ROW,COL
 ---------------------------------------------------------------------------
  1   8.535      0   5.415      0  -2.251      0  -1.360      0 -0.9748    
   ( 50,  1, 62)  ( 50,  1, 53)  ( 50,  1, 67)  ( 50,  1, 73)  ( 50,  1, 51)
  0 -0.5651      0 -0.4088      0  0.1920      0  0.1305      0  0.1013    
   ( 49,  1, 62)  ( 49,  1, 58)  ( 50,  1, 50)  ( 49,  1, 63)  ( 49,  1, 58)
  0  0.8768E-01  0  0.6216E-01  0 -0.5273E-01  0 -0.3857E-01  0  0.3274E-01
   ( 45,  1, 99)  ( 41,  1, 99)  ( 46,  1, 99)  ( 43,  1, 99)  ( 47,  1, 99)
  0  0.3025E-01  0  0.2521E-01  1  0.9316E-02
   ( 44,  1, 99)  ( 41,  1, 99)  ( 41,  1, 99)


 FLOW MODEL IS TRANSIENT
 FLOW MODEL CONTAINS CONSTANT-HEAD CELLS


 MAXIMUM STEPSIZE DURING WHICH ANY PARTICLE CANNOT MOVE MORE THAN ONE CELL
 =  9.260    (WHEN MIN. R.F.=1)  AT K=   1, I=   1, J=  99

 MAXIMUM STEPSIZE WHICH MEETS STABILITY CRITERION OF THE ADVECTION TERM
 (FOR PURE FINITE-DIFFERENCE OPTION, MIXELM=0) 
 =  9.036    (WHEN MIN. R.F.=1)  AT K=   1, I=   1, J=  99


 TOTAL NUMBER OF POINT SOURCES/SINKS PRESENT IN THE FLOW MODEL =       100

 MAXIMUM STEPSIZE WHICH MEETS STABILITY CRITERION OF THE SINK & SOURCE TERM
 =  122.8    (WHEN MIN. R.F.=1)  AT K=   1, I=   1, J=   1

 MAXIMUM STEPSIZE WHICH MEETS STABILITY CRITERION OF THE DISPERSION TERM
 =  2.063    (WHEN MIN. R.F.=1)  AT K=   1, I=   1, J=  99
     5 CALLS TO GCG PACKAGE FOR TRANSPORT TIME STEP  15 IN FLOW TIME STEP   1 STRESS PERIOD   4
    15 TOTAL ITERATIONS
 
 SOLVING FOR HEAD 


     2 CALLS TO PCG ROUTINE FOR TIME STEP   1 IN STRESS PERIOD    4
    19 TOTAL ITERATIONS

 MAXIMUM HEAD CHANGE FOR EACH ITERATION (1 INDICATES THE FIRST INNER ITERATION):

    HEAD CHANGE    HEAD CHANGE    HEAD CHANGE    HEAD CHANGE    HEAD CHANGE 
   LAYER,ROW,COL  LAYER,ROW,COL  LAYER,ROW,COL  LAYER,ROW,COL  LAYER,ROW,COL
 ---------------------------------------------------------------------------
  1  0.1194E-02  0  0.3945E-03  0  0.1926E-03  0  0.1012E-03  0  0.6392E-04
   ( 50,  1, 59)  ( 48,  1, 67)  ( 46,  1, 72)  ( 42,  1, 76)  ( 38,  1, 78)
  0  0.3949E-04  0 -0.2153E-04  0 -0.1459E-04  0 -0.9447E-05  0 -0.6907E-05
   ( 50,  1, 77)  (  3,  1, 74)  (  3,  1, 62)  (  1,  1, 64)  (  2,  1, 51)
  0 -0.4875E-05  0 -0.3142E-05  0 -0.2078E-05  0 -0.1385E-05  0 -0.1101E-05
   (  1,  1, 55)  (  2,  1, 47)  (  4,  1, 42)  (  5,  1, 36)  (  4,  1, 25)
  0 -0.1036E-05  0 -0.1012E-05  0 -0.9974E-06  1 -0.2871E-06
   (  8,  1,  3)  (  4,  1,  5)  (  5,  1,  1)  ( 48,  1,  6)

 MAXIMUM RESIDUAL FOR EACH ITERATION (1 INDICATES THE FIRST INNER ITERATION):

    RESIDUAL       RESIDUAL       RESIDUAL       RESIDUAL       RESIDUAL    
   LAYER,ROW,COL  LAYER,ROW,COL  LAYER,ROW,COL  LAYER,ROW,COL  LAYER,ROW,COL
 ---------------------------------------------------------------------------
  1   8.488      0   5.421      0  -2.248      0  -1.354      0 -0.9727    
   ( 50,  1, 62)  ( 50,  1, 53)  ( 50,  1, 67)  ( 50,  1, 73)  ( 50,  1, 51)
  0 -0.5643      0 -0.4072      0  0.1888      0  0.1299      0  0.9924E-01
   ( 49,  1, 62)  ( 49,  1, 58)  ( 50,  1, 50)  ( 49,  1, 62)  ( 49,  1, 57)
  0  0.8615E-01  0  0.6162E-01  0 -0.5249E-01  0 -0.3867E-01  0  0.3332E-01
   ( 45,  1, 99)  ( 41,  1, 99)  ( 46,  1, 99)  ( 43,  1, 99)  ( 47,  1, 99)
  0  0.3107E-01  0  0.2597E-01  0 -0.2944E-01  1 -0.1073E-01
   ( 44,  1, 99)  ( 41,  1, 99)  ( 46,  1, 99)  ( 46,  1, 99)


 FLOW MODEL IS TRANSIENT
 FLOW MODEL CONTAINS CONSTANT-HEAD CELLS


 MAXIMUM STEPSIZE DURING WHICH ANY PARTICLE CANNOT MOVE MORE THAN ONE CELL
 =  9.265    (WHEN MIN. R.F.=1)  AT K=   1, I=   1, J=  99

 MAXIMUM STEPSIZE WHICH MEETS STABILITY CRITERION OF THE ADVECTION TERM
 (FOR PURE FINITE-DIFFERENCE OPTION, MIXELM=0) 
 =  9.040    (WHEN MIN. R.F.=1)  AT K=   1, I=   1, J=  99


 TOTAL NUMBER OF POINT SOURCES/SINKS PRESENT IN THE FLOW MODEL =       100

 MAXIMUM STEPSIZE WHICH MEETS STABILITY CRITERION OF THE SINK & SOURCE TERM
 =  122.8    (WHEN MIN. R.F.=1)  AT K=   1, I=   1, J=   1

 MAXIMUM STEPSIZE WHICH MEETS STABILITY CRITERION OF THE DISPERSION TERM
 =  2.064    (WHEN MIN. R.F.=1)  AT K=   1, I=   1, J=  99
     5 CALLS TO GCG PACKAGE FOR TRANSPORT TIME STEP  16 IN FLOW TIME STEP   1 STRESS PERIOD   4
    15 TOTAL ITERATIONS
 
 SOLVING FOR HEAD 


     2 CALLS TO PCG ROUTINE FOR TIME STEP   1 IN STRESS PERIOD    4
    21 TOTAL ITERATIONS

 MAXIMUM HEAD CHANGE FOR EACH ITERATION (1 INDICATES THE FIRST INNER ITERATION):

    HEAD CHANGE    HEAD CHANGE    HEAD CHANGE    HEAD CHANGE    HEAD CHANGE 
   LAYER,ROW,COL  LAYER,ROW,COL  LAYER,ROW,COL  LAYER,ROW,COL  LAYER,ROW,COL
 ---------------------------------------------------------------------------
  1  0.1190E-02  0  0.3924E-03  0  0.1917E-03  0  0.1009E-03  0  0.6370E-04
   ( 50,  1, 59)  ( 48,  1, 67)  ( 46,  1, 72)  ( 42,  1, 76)  ( 38,  1, 78)
  0  0.3941E-04  0 -0.2224E-04  0 -0.1411E-04  0 -0.9067E-05  0 -0.7519E-05
   ( 50,  1, 77)  (  3,  1, 73)  (  3,  1, 64)  (  1,  1, 62)  (  2,  1, 51)
  0 -0.5170E-05  0 -0.3139E-05  0 -0.2088E-05  0 -0.1478E-05  0 -0.1201E-05
   (  2,  1, 57)  (  3,  1, 49)  (  5,  1, 44)  (  1,  1, 36)  (  4,  1, 25)
  0 -0.1187E-05  0 -0.1175E-05  0 -0.1154E-05  0 -0.1016E-05  0 -0.9148E-06
   (  8,  1,  3)  (  6,  1,  6)  (  9,  1,  1)  (  6,  1,  3)  ( 49,  1, 13)
  1 -0.2196E-06
   ( 44,  1, 14)

 MAXIMUM RESIDUAL FOR EACH ITERATION (1 INDICATES THE FIRST INNER ITERATION):

    RESIDUAL       RESIDUAL       RESIDUAL       RESIDUAL       RESIDUAL    
   LAYER,ROW,COL  LAYER,ROW,COL  LAYER,ROW,COL  LAYER,ROW,COL  LAYER,ROW,COL
 ---------------------------------------------------------------------------
  1   8.450      0   5.421      0  -2.243      0  -1.354      0 -0.9709    
   ( 50,  1, 61)  ( 50,  1, 53)  ( 50,  1, 67)  ( 50,  1, 73)  ( 50,  1, 51)
  0 -0.5649      0 -0.4084      0  0.1909      0  0.1309      0  0.1004    
   ( 49,  1, 62)  ( 49,  1, 58)  ( 50,  1, 50)  ( 49,  1, 62)  ( 49,  1, 57)
  0  0.8600E-01  0  0.6197E-01  0 -0.5354E-01  0 -0.4034E-01  0  0.3583E-01
   ( 45,  1, 99)  ( 41,  1, 99)  ( 46,  1, 99)  ( 43,  1, 99)  ( 47,  1, 99)
  0  0.3468E-01  0  0.3003E-01  0 -0.3299E-01  0 -0.2864E-01  0  0.2273E-01
   ( 45,  1, 99)  ( 41,  1, 99)  ( 46,  1, 99)  ( 44,  1, 99)  ( 48,  1, 99)
  1  0.8160E-02
   ( 48,  1, 99)


 FLOW MODEL IS TRANSIENT
 FLOW MODEL CONTAINS CONSTANT-HEAD CELLS


 MAXIMUM STEPSIZE DURING WHICH ANY PARTICLE CANNOT MOVE MORE THAN ONE CELL
 =  9.270    (WHEN MIN. R.F.=1)  AT K=   1, I=   1, J=  99

 MAXIMUM STEPSIZE WHICH MEETS STABILITY CRITERION OF THE ADVECTION TERM
 (FOR PURE FINITE-DIFFERENCE OPTION, MIXELM=0) 
 =  9.044    (WHEN MIN. R.F.=1)  AT K=   1, I=   1, J=  99


 TOTAL NUMBER OF POINT SOURCES/SINKS PRESENT IN THE FLOW MODEL =       100

 MAXIMUM STEPSIZE WHICH MEETS STABILITY CRITERION OF THE SINK & SOURCE TERM
 =  122.8    (WHEN MIN. R.F.=1)  AT K=   1, I=   1, J=   1

 MAXIMUM STEPSIZE WHICH MEETS STABILITY CRITERION OF THE DISPERSION TERM
 =  2.065    (WHEN MIN. R.F.=1)  AT K=   1, I=   1, J=  99
     5 CALLS TO GCG PACKAGE FOR TRANSPORT TIME STEP  17 IN FLOW TIME STEP   1 STRESS PERIOD   4
    15 TOTAL ITERATIONS
 
 SOLVING FOR HEAD 


     2 CALLS TO PCG ROUTINE FOR TIME STEP   1 IN STRESS PERIOD    4
    21 TOTAL ITERATIONS

 MAXIMUM HEAD CHANGE FOR EACH ITERATION (1 INDICATES THE FIRST INNER ITERATION):

    HEAD CHANGE    HEAD CHANGE    HEAD CHANGE    HEAD CHANGE    HEAD CHANGE 
   LAYER,ROW,COL  LAYER,ROW,COL  LAYER,ROW,COL  LAYER,ROW,COL  LAYER,ROW,COL
 ---------------------------------------------------------------------------
  1  0.1185E-02  0  0.3904E-03  0  0.1912E-03  0  0.1007E-03  0  0.6380E-04
   ( 50,  1, 59)  ( 48,  1, 67)  ( 46,  1, 72)  ( 42,  1, 76)  ( 39,  1, 79)
  0  0.3941E-04  0 -0.2206E-04  0 -0.1414E-04  0 -0.9080E-05  0 -0.7442E-05
   ( 50,  1, 77)  (  3,  1, 73)  (  3,  1, 63)  (  1,  1, 63)  (  2,  1, 51)
  0 -0.5093E-05  0 -0.3106E-05  0 -0.2101E-05  0 -0.1483E-05  0 -0.1218E-05
   (  2,  1, 57)  (  2,  1, 47)  (  4,  1, 42)  (  1,  1, 36)  (  4,  1, 25)
  0 -0.1206E-05  0 -0.1206E-05  0 -0.1186E-05  0 -0.1037E-05  0 -0.9336E-06
   (  9,  1,  3)  (  5,  1,  5)  (  9,  1,  1)  (  6,  1,  3)  ( 49,  1, 13)
  1 -0.2239E-06
   ( 44,  1, 14)

 MAXIMUM RESIDUAL FOR EACH ITERATION (1 INDICATES THE FIRST INNER ITERATION):

    RESIDUAL       RESIDUAL       RESIDUAL       RESIDUAL       RESIDUAL    
   LAYER,ROW,COL  LAYER,ROW,COL  LAYER,ROW,COL  LAYER,ROW,COL  LAYER,ROW,COL
 ---------------------------------------------------------------------------
  1   8.432      0   5.407      0  -2.238      0  -1.350      0 -0.9678    
   ( 50,  1, 61)  ( 50,  1, 53)  ( 50,  1, 67)  ( 50,  1, 73)  ( 50,  1, 51)
  0 -0.5636      0 -0.4064      0  0.1880      0  0.1300      0  0.9909E-01
   ( 49,  1, 62)  ( 49,  1, 58)  ( 50,  1, 50)  ( 49,  1, 62)  ( 49,  1, 57)
  0  0.8453E-01  0  0.6133E-01  0 -0.5325E-01  0 -0.4021E-01  0  0.3626E-01
   ( 45,  1, 99)  ( 41,  1, 99)  ( 46,  1, 99)  ( 43,  1, 99)  ( 47,  1, 99)
  0  0.3518E-01  0  0.3038E-01  0 -0.3334E-01  0 -0.2876E-01  0  0.2284E-01
   ( 44,  1, 99)  ( 41,  1, 99)  ( 46,  1, 99)  ( 44,  1, 99)  ( 48,  1, 99)
  1  0.8202E-02
   ( 48,  1, 99)


 FLOW MODEL IS TRANSIENT
 FLOW MODEL CONTAINS CONSTANT-HEAD CELLS


 MAXIMUM STEPSIZE DURING WHICH ANY PARTICLE CANNOT MOVE MORE THAN ONE CELL
 =  9.274    (WHEN MIN. R.F.=1)  AT K=   1, I=   1, J=  99

 MAXIMUM STEPSIZE WHICH MEETS STABILITY CRITERION OF THE ADVECTION TERM
 (FOR PURE FINITE-DIFFERENCE OPTION, MIXELM=0) 
 =  9.049    (WHEN MIN. R.F.=1)  AT K=   1, I=   1, J=  99


 TOTAL NUMBER OF POINT SOURCES/SINKS PRESENT IN THE FLOW MODEL =       100

 MAXIMUM STEPSIZE WHICH MEETS STABILITY CRITERION OF THE SINK & SOURCE TERM
 =  122.8    (WHEN MIN. R.F.=1)  AT K=   1, I=   1, J=   1

 MAXIMUM STEPSIZE WHICH MEETS STABILITY CRITERION OF THE DISPERSION TERM
 =  2.066    (WHEN MIN. R.F.=1)  AT K=   1, I=   1, J=  99
     5 CALLS TO GCG PACKAGE FOR TRANSPORT TIME STEP  18 IN FLOW TIME STEP   1 STRESS PERIOD   4
    15 TOTAL ITERATIONS
 
 SOLVING FOR HEAD 


     2 CALLS TO PCG ROUTINE FOR TIME STEP   1 IN STRESS PERIOD    4
    21 TOTAL ITERATIONS

 MAXIMUM HEAD CHANGE FOR EACH ITERATION (1 INDICATES THE FIRST INNER ITERATION):

    HEAD CHANGE    HEAD CHANGE    HEAD CHANGE    HEAD CHANGE    HEAD CHANGE 
   LAYER,ROW,COL  LAYER,ROW,COL  LAYER,ROW,COL  LAYER,ROW,COL  LAYER,ROW,COL
 ---------------------------------------------------------------------------
  1  0.1180E-02  0  0.3883E-03  0  0.1906E-03  0  0.1004E-03  0  0.6368E-04
   ( 50,  1, 59)  ( 48,  1, 67)  ( 46,  1, 72)  ( 42,  1, 76)  ( 39,  1, 79)
  0  0.3935E-04  0 -0.2209E-04  0 -0.1406E-04  0 -0.9004E-05  0 -0.7465E-05
   ( 50,  1, 77)  (  3,  1, 73)  (  3,  1, 63)  (  1,  1, 63)  (  2,  1, 51)
  0 -0.5095E-05  0 -0.3069E-05  0 -0.2060E-05  0 -0.1462E-05  0 -0.1193E-05
   (  2,  1, 57)  (  3,  1, 49)  (  5,  1, 44)  (  1,  1, 36)  (  2,  1, 31)
  0 -0.1177E-05  0 -0.1177E-05  0 -0.1155E-05  0 -0.1014E-05  0 -0.9093E-06
   (  9,  1,  3)  (  5,  1,  5)  (  9,  1,  1)  (  6,  1,  3)  ( 49,  1, 13)
  1 -0.2200E-06
   ( 44,  1, 14)

 MAXIMUM RESIDUAL FOR EACH ITERATION (1 INDICATES THE FIRST INNER ITERATION):

    RESIDUAL       RESIDUAL       RESIDUAL       RESIDUAL       RESIDUAL    
   LAYER,ROW,COL  LAYER,ROW,COL  LAYER,ROW,COL  LAYER,ROW,COL  LAYER,ROW,COL
 ---------------------------------------------------------------------------
  1   8.403      0   5.387      0  -2.228      0  -1.345      0 -0.9660    
   ( 50,  1, 61)  ( 50,  1, 53)  ( 50,  1, 67)  ( 50,  1, 73)  ( 50,  1, 50)
  0 -0.5617      0 -0.4047      0  0.1868      0  0.1294      0  0.9849E-01
   ( 49,  1, 62)  ( 49,  1, 58)  ( 50,  1, 50)  ( 49,  1, 62)  ( 49,  1, 57)
  0  0.8349E-01  0  0.6069E-01  0 -0.5226E-01  0 -0.3942E-01  0  0.3510E-01
   ( 45,  1, 99)  ( 41,  1, 99)  ( 46,  1, 99)  ( 43,  1, 99)  ( 47,  1, 99)
  0  0.3397E-01  0  0.2937E-01  0 -0.3209E-01  0 -0.2799E-01  0  0.2232E-01
   ( 44,  1, 99)  ( 41,  1, 99)  ( 46,  1, 99)  ( 44,  1, 99)  ( 48,  1, 99)
  1 -0.8057E-02
   ( 40,  1, 99)


 FLOW MODEL IS TRANSIENT
 FLOW MODEL CONTAINS CONSTANT-HEAD CELLS


 MAXIMUM STEPSIZE DURING WHICH ANY PARTICLE CANNOT MOVE MORE THAN ONE CELL
 =  9.279    (WHEN MIN. R.F.=1)  AT K=   1, I=   1, J=  99

 MAXIMUM STEPSIZE WHICH MEETS STABILITY CRITERION OF THE ADVECTION TERM
 (FOR PURE FINITE-DIFFERENCE OPTION, MIXELM=0) 
 =  9.053    (WHEN MIN. R.F.=1)  AT K=   1, I=   1, J=  99


 TOTAL NUMBER OF POINT SOURCES/SINKS PRESENT IN THE FLOW MODEL =       100

 MAXIMUM STEPSIZE WHICH MEETS STABILITY CRITERION OF THE SINK & SOURCE TERM
 =  122.8    (WHEN MIN. R.F.=1)  AT K=   1, I=   1, J=   1

 MAXIMUM STEPSIZE WHICH MEETS STABILITY CRITERION OF THE DISPERSION TERM
 =  2.067    (WHEN MIN. R.F.=1)  AT K=   1, I=   1, J=  99
     5 CALLS TO GCG PACKAGE FOR TRANSPORT TIME STEP  19 IN FLOW TIME STEP   1 STRESS PERIOD   4
    15 TOTAL ITERATIONS
 
 SOLVING FOR HEAD 


     2 CALLS TO PCG ROUTINE FOR TIME STEP   1 IN STRESS PERIOD    4
    20 TOTAL ITERATIONS

 MAXIMUM HEAD CHANGE FOR EACH ITERATION (1 INDICATES THE FIRST INNER ITERATION):

    HEAD CHANGE    HEAD CHANGE    HEAD CHANGE    HEAD CHANGE    HEAD CHANGE 
   LAYER,ROW,COL  LAYER,ROW,COL  LAYER,ROW,COL  LAYER,ROW,COL  LAYER,ROW,COL
 ---------------------------------------------------------------------------
  1  0.1175E-02  0  0.3862E-03  0  0.1900E-03  0  0.1001E-03  0  0.6364E-04
   ( 50,  1, 59)  ( 48,  1, 67)  ( 46,  1, 72)  ( 42,  1, 75)  ( 39,  1, 79)
  0  0.3930E-04  0 -0.2204E-04  0 -0.1389E-04  0 -0.8974E-05  0 -0.7387E-05
   ( 50,  1, 77)  (  3,  1, 73)  (  3,  1, 63)  (  1,  1, 62)  (  2,  1, 51)
  0 -0.5015E-05  0 -0.2994E-05  0 -0.1981E-05  0 -0.1376E-05  0 -0.1095E-05
   (  2,  1, 57)  (  2,  1, 47)  (  4,  1, 42)  (  1,  1, 36)  (  2,  1, 31)
  0 -0.1051E-05  0 -0.1040E-05  0 -0.1047E-05  0 -0.9632E-06  1 -0.2579E-06
   (  4,  1,  8)  (  5,  1,  5)  ( 10,  1,  1)  (  6,  1,  3)  ( 40,  1,  7)

 MAXIMUM RESIDUAL FOR EACH ITERATION (1 INDICATES THE FIRST INNER ITERATION):

    RESIDUAL       RESIDUAL       RESIDUAL       RESIDUAL       RESIDUAL    
   LAYER,ROW,COL  LAYER,ROW,COL  LAYER,ROW,COL  LAYER,ROW,COL  LAYER,ROW,COL
 ---------------------------------------------------------------------------
  1   8.372      0   5.354      0  -2.218      0  -1.341      0 -0.9657    
   ( 50,  1, 61)  ( 50,  1, 53)  ( 50,  1, 67)  ( 50,  1, 72)  ( 50,  1, 50)
  0 -0.5604      0 -0.4030      0  0.1854      0  0.1285      0  0.9755E-01
   ( 49,  1, 62)  ( 49,  1, 58)  ( 50,  1, 50)  ( 49,  1, 62)  ( 49,  1, 57)
  0  0.8218E-01  0  0.5950E-01  0 -0.5048E-01  0 -0.3758E-01  0  0.3222E-01
   ( 45,  1, 99)  ( 41,  1, 99)  ( 46,  1, 99)  ( 43,  1, 99)  ( 47,  1, 99)
  0  0.3084E-01  0  0.2640E-01  0 -0.2874E-01  0 -0.2577E-01  1 -0.1031E-01
   ( 45,  1, 99)  ( 41,  1, 99)  ( 46,  1, 99)  ( 44,  1, 99)  ( 43,  1, 99)


 FLOW MODEL IS TRANSIENT
 FLOW MODEL CONTAINS CONSTANT-HEAD CELLS


 MAXIMUM STEPSIZE DURING WHICH ANY PARTICLE CANNOT MOVE MORE THAN ONE CELL
 =  9.283    (WHEN MIN. R.F.=1)  AT K=   1, I=   1, J=  99

 MAXIMUM STEPSIZE WHICH MEETS STABILITY CRITERION OF THE ADVECTION TERM
 (FOR PURE FINITE-DIFFERENCE OPTION, MIXELM=0) 
 =  9.057    (WHEN MIN. R.F.=1)  AT K=   1, I=   1, J=  99


 TOTAL NUMBER OF POINT SOURCES/SINKS PRESENT IN THE FLOW MODEL =       100

 MAXIMUM STEPSIZE WHICH MEETS STABILITY CRITERION OF THE SINK & SOURCE TERM
 =  122.8    (WHEN MIN. R.F.=1)  AT K=   1, I=   1, J=   1

 MAXIMUM STEPSIZE WHICH MEETS STABILITY CRITERION OF THE DISPERSION TERM
 =  2.068    (WHEN MIN. R.F.=1)  AT K=   1, I=   1, J=  99
     5 CALLS TO GCG PACKAGE FOR TRANSPORT TIME STEP  20 IN FLOW TIME STEP   1 STRESS PERIOD   4
    15 TOTAL ITERATIONS
 
 SOLVING FOR HEAD 


     2 CALLS TO PCG ROUTINE FOR TIME STEP   1 IN STRESS PERIOD    4
    20 TOTAL ITERATIONS

 MAXIMUM HEAD CHANGE FOR EACH ITERATION (1 INDICATES THE FIRST INNER ITERATION):

    HEAD CHANGE    HEAD CHANGE    HEAD CHANGE    HEAD CHANGE    HEAD CHANGE 
   LAYER,ROW,COL  LAYER,ROW,COL  LAYER,ROW,COL  LAYER,ROW,COL  LAYER,ROW,COL
 ---------------------------------------------------------------------------
  1  0.1169E-02  0  0.3843E-03  0  0.1890E-03  0  0.9975E-04  0  0.6330E-04
   ( 50,  1, 59)  ( 48,  1, 66)  ( 46,  1, 72)  ( 42,  1, 76)  ( 39,  1, 79)
  0  0.3915E-04  0 -0.2157E-04  0 -0.1406E-04  0 -0.9179E-05  0 -0.7047E-05
   ( 50,  1, 77)  (  3,  1, 73)  (  3,  1, 62)  (  1,  1, 63)  (  2,  1, 50)
  0 -0.5036E-05  0 -0.3239E-05  0 -0.2142E-05  0 -0.1470E-05  0 -0.1247E-05
   (  1,  1, 55)  (  2,  1, 46)  (  4,  1, 41)  (  4,  1, 32)  (  4,  1, 24)
  0 -0.1221E-05  0 -0.1207E-05  0 -0.1164E-05  0 -0.9928E-06  1 -0.2844E-06
   (  9,  1,  3)  (  5,  1,  5)  (  9,  1,  1)  (  7,  1,  3)  ( 40,  1,  7)

 MAXIMUM RESIDUAL FOR EACH ITERATION (1 INDICATES THE FIRST INNER ITERATION):

    RESIDUAL       RESIDUAL       RESIDUAL       RESIDUAL       RESIDUAL    
   LAYER,ROW,COL  LAYER,ROW,COL  LAYER,ROW,COL  LAYER,ROW,COL  LAYER,ROW,COL
 ---------------------------------------------------------------------------
  1   8.333      0   5.315      0  -2.211      0  -1.344      0 -0.9661    
   ( 50,  1, 61)  ( 50,  1, 53)  ( 50,  1, 66)  ( 50,  1, 72)  ( 50,  1, 50)
  0 -0.5578      0 -0.4028      0  0.1878      0  0.1289      0  0.1000    
   ( 49,  1, 61)  ( 49,  1, 58)  ( 50,  1, 49)  ( 49,  1, 62)  ( 49,  1, 57)
  0  0.8315E-01  0  0.6077E-01  0 -0.5176E-01  0 -0.3951E-01  0  0.3529E-01
   ( 45,  1, 99)  ( 41,  1, 99)  ( 46,  1, 99)  ( 43,  1, 99)  ( 47,  1, 99)
  0  0.3473E-01  0  0.3015E-01  0 -0.3267E-01  0 -0.2813E-01  1 -0.1150E-01
   ( 44,  1, 99)  ( 41,  1, 99)  ( 46,  1, 99)  ( 43,  1, 99)  ( 43,  1, 99)


 FLOW MODEL IS TRANSIENT
 FLOW MODEL CONTAINS CONSTANT-HEAD CELLS


 MAXIMUM STEPSIZE DURING WHICH ANY PARTICLE CANNOT MOVE MORE THAN ONE CELL
 =  9.288    (WHEN MIN. R.F.=1)  AT K=   1, I=   1, J=  99

 MAXIMUM STEPSIZE WHICH MEETS STABILITY CRITERION OF THE ADVECTION TERM
 (FOR PURE FINITE-DIFFERENCE OPTION, MIXELM=0) 
 =  9.062    (WHEN MIN. R.F.=1)  AT K=   1, I=   1, J=  99


 TOTAL NUMBER OF POINT SOURCES/SINKS PRESENT IN THE FLOW MODEL =       100

 MAXIMUM STEPSIZE WHICH MEETS STABILITY CRITERION OF THE SINK & SOURCE TERM
 =  122.8    (WHEN MIN. R.F.=1)  AT K=   1, I=   1, J=   1

 MAXIMUM STEPSIZE WHICH MEETS STABILITY CRITERION OF THE DISPERSION TERM
 =  2.069    (WHEN MIN. R.F.=1)  AT K=   1, I=   1, J=  99
     5 CALLS TO GCG PACKAGE FOR TRANSPORT TIME STEP  21 IN FLOW TIME STEP   1 STRESS PERIOD   4
    15 TOTAL ITERATIONS
 
 SOLVING FOR HEAD 


     2 CALLS TO PCG ROUTINE FOR TIME STEP   1 IN STRESS PERIOD    4
    20 TOTAL ITERATIONS

 MAXIMUM HEAD CHANGE FOR EACH ITERATION (1 INDICATES THE FIRST INNER ITERATION):

    HEAD CHANGE    HEAD CHANGE    HEAD CHANGE    HEAD CHANGE    HEAD CHANGE 
   LAYER,ROW,COL  LAYER,ROW,COL  LAYER,ROW,COL  LAYER,ROW,COL  LAYER,ROW,COL
 ---------------------------------------------------------------------------
  1  0.1163E-02  0  0.3827E-03  0  0.1884E-03  0  0.9958E-04  0  0.6317E-04
   ( 50,  1, 59)  ( 48,  1, 66)  ( 46,  1, 72)  ( 42,  1, 75)  ( 39,  1, 79)
  0  0.3912E-04  0 -0.2131E-04  0 -0.1412E-04  0 -0.9381E-05  0 -0.6726E-05
   ( 50,  1, 77)  (  1,  1, 81)  (  3,  1, 61)  (  1,  1, 63)  (  2,  1, 50)
  0 -0.4779E-05  0 -0.3123E-05  0 -0.2042E-05  0 -0.1355E-05  0 -0.1100E-05
   (  1,  1, 54)  (  2,  1, 46)  (  4,  1, 41)  (  5,  1, 34)  (  4,  1, 24)
  0 -0.1036E-05  0 -0.1025E-05  0 -0.1010E-05  0 -0.9011E-06  1 -0.2608E-06
   (  9,  1,  3)  (  2,  1, 10)  (  5,  1,  1)  (  7,  1,  3)  ( 40,  1,  7)

 MAXIMUM RESIDUAL FOR EACH ITERATION (1 INDICATES THE FIRST INNER ITERATION):

    RESIDUAL       RESIDUAL       RESIDUAL       RESIDUAL       RESIDUAL    
   LAYER,ROW,COL  LAYER,ROW,COL  LAYER,ROW,COL  LAYER,ROW,COL  LAYER,ROW,COL
 ---------------------------------------------------------------------------
  1   8.293      0   5.283      0  -2.207      0  -1.340      0 -0.9645    
   ( 50,  1, 61)  ( 50,  1, 52)  ( 50,  1, 66)  ( 50,  1, 72)  ( 50,  1, 50)
  0 -0.5571      0 -0.4006      0  0.1850      0  0.1276      0  0.9699E-01
   ( 49,  1, 61)  ( 49,  1, 57)  ( 50,  1, 49)  ( 49,  1, 61)  ( 49,  1, 57)
  0  0.8065E-01  0  0.5899E-01  0 -0.4931E-01  0 -0.3699E-01  0  0.3141E-01
   ( 45,  1, 99)  ( 41,  1, 99)  ( 46,  1, 99)  ( 43,  1, 99)  ( 47,  1, 99)
  0  0.3018E-01  0  0.2587E-01  0 -0.2817E-01  0 -0.2498E-01  1 -0.1003E-01
   ( 44,  1, 99)  ( 41,  1, 99)  ( 46,  1, 99)  ( 43,  1, 99)  ( 43,  1, 99)


 FLOW MODEL IS TRANSIENT
 FLOW MODEL CONTAINS CONSTANT-HEAD CELLS


 MAXIMUM STEPSIZE DURING WHICH ANY PARTICLE CANNOT MOVE MORE THAN ONE CELL
 =  9.292    (WHEN MIN. R.F.=1)  AT K=   1, I=   1, J=  99

 MAXIMUM STEPSIZE WHICH MEETS STABILITY CRITERION OF THE ADVECTION TERM
 (FOR PURE FINITE-DIFFERENCE OPTION, MIXELM=0) 
 =  9.066    (WHEN MIN. R.F.=1)  AT K=   1, I=   1, J=  99


 TOTAL NUMBER OF POINT SOURCES/SINKS PRESENT IN THE FLOW MODEL =       100

 MAXIMUM STEPSIZE WHICH MEETS STABILITY CRITERION OF THE SINK & SOURCE TERM
 =  122.8    (WHEN MIN. R.F.=1)  AT K=   1, I=   1, J=   1

 MAXIMUM STEPSIZE WHICH MEETS STABILITY CRITERION OF THE DISPERSION TERM
 =  2.070    (WHEN MIN. R.F.=1)  AT K=   1, I=   1, J=  99
     5 CALLS TO GCG PACKAGE FOR TRANSPORT TIME STEP  22 IN FLOW TIME STEP   1 STRESS PERIOD   4
    15 TOTAL ITERATIONS
 
 SOLVING FOR HEAD 


     2 CALLS TO PCG ROUTINE FOR TIME STEP   1 IN STRESS PERIOD    4
    20 TOTAL ITERATIONS

 MAXIMUM HEAD CHANGE FOR EACH ITERATION (1 INDICATES THE FIRST INNER ITERATION):

    HEAD CHANGE    HEAD CHANGE    HEAD CHANGE    HEAD CHANGE    HEAD CHANGE 
   LAYER,ROW,COL  LAYER,ROW,COL  LAYER,ROW,COL  LAYER,ROW,COL  LAYER,ROW,COL
 ---------------------------------------------------------------------------
  1  0.1158E-02  0  0.3809E-03  0  0.1876E-03  0  0.9937E-04  0  0.6312E-04
   ( 50,  1, 58)  ( 48,  1, 66)  ( 46,  1, 71)  ( 42,  1, 75)  ( 39,  1, 78)
  0  0.3905E-04  0 -0.2137E-04  0 -0.1395E-04  0 -0.9280E-05  0 -0.6865E-05
   ( 50,  1, 76)  (  3,  1, 73)  (  3,  1, 61)  (  1,  1, 63)  (  2,  1, 51)
  0 -0.4815E-05  0 -0.3149E-05  0 -0.2100E-05  0 -0.1427E-05  0 -0.1189E-05
   (  1,  1, 54)  (  2,  1, 46)  (  4,  1, 41)  (  5,  1, 34)  (  4,  1, 24)
  0 -0.1180E-05  0 -0.1177E-05  0 -0.1135E-05  0 -0.9605E-06  1 -0.2716E-06
   (  9,  1,  3)  (  5,  1,  5)  (  9,  1,  1)  (  6,  1,  3)  ( 40,  1,  7)

 MAXIMUM RESIDUAL FOR EACH ITERATION (1 INDICATES THE FIRST INNER ITERATION):

    RESIDUAL       RESIDUAL       RESIDUAL       RESIDUAL       RESIDUAL    
   LAYER,ROW,COL  LAYER,ROW,COL  LAYER,ROW,COL  LAYER,ROW,COL  LAYER,ROW,COL
 ---------------------------------------------------------------------------
  1   8.252      0   5.291      0  -2.204      0  -1.338      0 -0.9630    
   ( 50,  1, 60)  ( 50,  1, 52)  ( 50,  1, 66)  ( 50,  1, 72)  ( 50,  1, 50)
  0 -0.5568      0 -0.4005      0  0.1845      0  0.1279      0  0.9687E-01
   ( 49,  1, 61)  ( 49,  1, 57)  ( 50,  1, 49)  ( 49,  1, 61)  ( 49,  1, 56)
  0  0.8016E-01  0  0.5917E-01  0 -0.5015E-01  0 -0.3827E-01  0  0.3383E-01
   ( 45,  1, 99)  ( 41,  1, 99)  ( 46,  1, 99)  ( 43,  1, 99)  ( 47,  1, 99)
  0  0.3334E-01  0  0.2894E-01  0 -0.3118E-01  0 -0.2718E-01  1 -0.1110E-01
   ( 44,  1, 99)  ( 41,  1, 99)  ( 46,  1, 99)  ( 43,  1, 99)  ( 43,  1, 99)


 FLOW MODEL IS TRANSIENT
 FLOW MODEL CONTAINS CONSTANT-HEAD CELLS


 MAXIMUM STEPSIZE DURING WHICH ANY PARTICLE CANNOT MOVE MORE THAN ONE CELL
 =  9.297    (WHEN MIN. R.F.=1)  AT K=   1, I=   1, J=  99

 MAXIMUM STEPSIZE WHICH MEETS STABILITY CRITERION OF THE ADVECTION TERM
 (FOR PURE FINITE-DIFFERENCE OPTION, MIXELM=0) 
 =  9.070    (WHEN MIN. R.F.=1)  AT K=   1, I=   1, J=  99


 TOTAL NUMBER OF POINT SOURCES/SINKS PRESENT IN THE FLOW MODEL =       100

 MAXIMUM STEPSIZE WHICH MEETS STABILITY CRITERION OF THE SINK & SOURCE TERM
 =  122.8    (WHEN MIN. R.F.=1)  AT K=   1, I=   1, J=   1

 MAXIMUM STEPSIZE WHICH MEETS STABILITY CRITERION OF THE DISPERSION TERM
 =  2.071    (WHEN MIN. R.F.=1)  AT K=   1, I=   1, J=  99
     5 CALLS TO GCG PACKAGE FOR TRANSPORT TIME STEP  23 IN FLOW TIME STEP   1 STRESS PERIOD   4
    15 TOTAL ITERATIONS
 
 SOLVING FOR HEAD 


     2 CALLS TO PCG ROUTINE FOR TIME STEP   1 IN STRESS PERIOD    4
    20 TOTAL ITERATIONS

 MAXIMUM HEAD CHANGE FOR EACH ITERATION (1 INDICATES THE FIRST INNER ITERATION):

    HEAD CHANGE    HEAD CHANGE    HEAD CHANGE    HEAD CHANGE    HEAD CHANGE 
   LAYER,ROW,COL  LAYER,ROW,COL  LAYER,ROW,COL  LAYER,ROW,COL  LAYER,ROW,COL
 ---------------------------------------------------------------------------
  1  0.1154E-02  0  0.3790E-03  0  0.1871E-03  0  0.9922E-04  0  0.6305E-04
   ( 50,  1, 58)  ( 48,  1, 66)  ( 46,  1, 71)  ( 42,  1, 75)  ( 39,  1, 78)
  0  0.3902E-04  0 -0.2121E-04  0 -0.1404E-04  0 -0.9358E-05  0 -0.6798E-05
   ( 50,  1, 76)  (  1,  1, 81)  (  3,  1, 61)  (  1,  1, 63)  (  2,  1, 50)
  0 -0.4835E-05  0 -0.3168E-05  0 -0.2104E-05  0 -0.1426E-05  0 -0.1197E-05
   (  1,  1, 54)  (  2,  1, 46)  (  4,  1, 40)  (  5,  1, 34)  (  4,  1, 24)
  0 -0.1180E-05  0 -0.1178E-05  0 -0.1138E-05  0 -0.9631E-06  1 -0.2861E-06
   (  9,  1,  3)  (  2,  1, 10)  (  9,  1,  1)  (  7,  1,  3)  ( 40,  1,  7)

 MAXIMUM RESIDUAL FOR EACH ITERATION (1 INDICATES THE FIRST INNER ITERATION):

    RESIDUAL       RESIDUAL       RESIDUAL       RESIDUAL       RESIDUAL    
   LAYER,ROW,COL  LAYER,ROW,COL  LAYER,ROW,COL  LAYER,ROW,COL  LAYER,ROW,COL
 ---------------------------------------------------------------------------
  1   8.230      0   5.284      0  -2.198      0  -1.334      0 -0.9613    
   ( 50,  1, 60)  ( 50,  1, 52)  ( 50,  1, 66)  ( 50,  1, 72)  ( 50,  1, 50)
  0 -0.5556      0 -0.4000      0  0.1846      0  0.1275      0  0.9690E-01
   ( 49,  1, 61)  ( 49,  1, 57)  ( 50,  1, 49)  ( 49,  1, 61)  ( 49,  1, 56)
  0  0.7932E-01  0  0.5885E-01  0 -0.4959E-01  0 -0.3802E-01  0  0.3345E-01
   ( 45,  1, 99)  ( 41,  1, 99)  ( 46,  1, 99)  ( 43,  1, 99)  ( 47,  1, 99)
  0  0.3319E-01  0  0.2890E-01  0 -0.3097E-01  0 -0.2711E-01  1 -0.1097E-01
   ( 44,  1, 99)  ( 41,  1, 99)  ( 46,  1, 99)  ( 43,  1, 99)  ( 43,  1, 99)


 FLOW MODEL IS TRANSIENT
 FLOW MODEL CONTAINS CONSTANT-HEAD CELLS


 MAXIMUM STEPSIZE DURING WHICH ANY PARTICLE CANNOT MOVE MORE THAN ONE CELL
 =  9.301    (WHEN MIN. R.F.=1)  AT K=   1, I=   1, J=  99

 MAXIMUM STEPSIZE WHICH MEETS STABILITY CRITERION OF THE ADVECTION TERM
 (FOR PURE FINITE-DIFFERENCE OPTION, MIXELM=0) 
 =  9.074    (WHEN MIN. R.F.=1)  AT K=   1, I=   1, J=  99


 TOTAL NUMBER OF POINT SOURCES/SINKS PRESENT IN THE FLOW MODEL =       100

 MAXIMUM STEPSIZE WHICH MEETS STABILITY CRITERION OF THE SINK & SOURCE TERM
 =  122.8    (WHEN MIN. R.F.=1)  AT K=   1, I=   1, J=   1

 MAXIMUM STEPSIZE WHICH MEETS STABILITY CRITERION OF THE DISPERSION TERM
 =  2.072    (WHEN MIN. R.F.=1)  AT K=   1, I=   1, J=  99
     5 CALLS TO GCG PACKAGE FOR TRANSPORT TIME STEP  24 IN FLOW TIME STEP   1 STRESS PERIOD   4
    15 TOTAL ITERATIONS
 
 SOLVING FOR HEAD 


     2 CALLS TO PCG ROUTINE FOR TIME STEP   1 IN STRESS PERIOD    4
    20 TOTAL ITERATIONS

 MAXIMUM HEAD CHANGE FOR EACH ITERATION (1 INDICATES THE FIRST INNER ITERATION):

    HEAD CHANGE    HEAD CHANGE    HEAD CHANGE    HEAD CHANGE    HEAD CHANGE 
   LAYER,ROW,COL  LAYER,ROW,COL  LAYER,ROW,COL  LAYER,ROW,COL  LAYER,ROW,COL
 ---------------------------------------------------------------------------
  1  0.1150E-02  0  0.3772E-03  0  0.1864E-03  0  0.9892E-04  0  0.6301E-04
   ( 50,  1, 58)  ( 48,  1, 66)  ( 46,  1, 71)  ( 42,  1, 75)  ( 39,  1, 78)
  0  0.3895E-04  0 -0.2127E-04  0 -0.1372E-04  0 -0.9199E-05  0 -0.6833E-05
   ( 50,  1, 76)  (  3,  1, 73)  (  3,  1, 61)  (  1,  1, 63)  (  2,  1, 50)
  0 -0.4782E-05  0 -0.3114E-05  0 -0.2066E-05  0 -0.1388E-05  0 -0.1145E-05
   (  1,  1, 54)  (  2,  1, 45)  (  4,  1, 40)  (  5,  1, 34)  (  4,  1, 23)
  0 -0.1142E-05  0 -0.1140E-05  0 -0.1103E-05  0 -0.9389E-06  1 -0.2610E-06
   (  3,  1,  7)  (  5,  1,  5)  (  8,  1,  1)  (  2,  1,  2)  ( 40,  1,  7)

 MAXIMUM RESIDUAL FOR EACH ITERATION (1 INDICATES THE FIRST INNER ITERATION):

    RESIDUAL       RESIDUAL       RESIDUAL       RESIDUAL       RESIDUAL    
   LAYER,ROW,COL  LAYER,ROW,COL  LAYER,ROW,COL  LAYER,ROW,COL  LAYER,ROW,COL
 ---------------------------------------------------------------------------
  1   8.208      0   5.270      0  -2.190      0  -1.332      0 -0.9588    
   ( 50,  1, 60)  ( 50,  1, 52)  ( 50,  1, 66)  ( 50,  1, 72)  ( 50,  1, 50)
  0 -0.5544      0 -0.3987      0  0.1834      0  0.1268      0  0.9641E-01
   ( 49,  1, 61)  ( 49,  1, 57)  ( 50,  1, 49)  ( 49,  1, 61)  ( 49,  1, 56)
  0  0.7814E-01  0  0.5804E-01  0 -0.4863E-01  0 -0.3722E-01  0  0.3227E-01
   ( 45,  1, 99)  ( 41,  1, 99)  ( 46,  1, 99)  ( 43,  1, 99)  ( 47,  1, 99)
  0  0.3193E-01  0  0.2785E-01  0 -0.2968E-01  0 -0.2625E-01  1 -0.1071E-01
   ( 44,  1, 99)  ( 41,  1, 99)  ( 46,  1, 99)  ( 43,  1, 99)  ( 43,  1, 99)


 FLOW MODEL IS TRANSIENT
 FLOW MODEL CONTAINS CONSTANT-HEAD CELLS


 MAXIMUM STEPSIZE DURING WHICH ANY PARTICLE CANNOT MOVE MORE THAN ONE CELL
 =  9.305    (WHEN MIN. R.F.=1)  AT K=   1, I=   1, J=  99

 MAXIMUM STEPSIZE WHICH MEETS STABILITY CRITERION OF THE ADVECTION TERM
 (FOR PURE FINITE-DIFFERENCE OPTION, MIXELM=0) 
 =  9.079    (WHEN MIN. R.F.=1)  AT K=   1, I=   1, J=  99


 TOTAL NUMBER OF POINT SOURCES/SINKS PRESENT IN THE FLOW MODEL =       100

 MAXIMUM STEPSIZE WHICH MEETS STABILITY CRITERION OF THE SINK & SOURCE TERM
 =  122.8    (WHEN MIN. R.F.=1)  AT K=   1, I=   1, J=   1

 MAXIMUM STEPSIZE WHICH MEETS STABILITY CRITERION OF THE DISPERSION TERM
 =  2.073    (WHEN MIN. R.F.=1)  AT K=   1, I=   1, J=  99
     5 CALLS TO GCG PACKAGE FOR TRANSPORT TIME STEP  25 IN FLOW TIME STEP   1 STRESS PERIOD   4
    15 TOTAL ITERATIONS
 
 SOLVING FOR HEAD 


     2 CALLS TO PCG ROUTINE FOR TIME STEP   1 IN STRESS PERIOD    4
    19 TOTAL ITERATIONS

 MAXIMUM HEAD CHANGE FOR EACH ITERATION (1 INDICATES THE FIRST INNER ITERATION):

    HEAD CHANGE    HEAD CHANGE    HEAD CHANGE    HEAD CHANGE    HEAD CHANGE 
   LAYER,ROW,COL  LAYER,ROW,COL  LAYER,ROW,COL  LAYER,ROW,COL  LAYER,ROW,COL
 ---------------------------------------------------------------------------
  1  0.1145E-02  0  0.3752E-03  0  0.1859E-03  0  0.9867E-04  0  0.6293E-04
   ( 50,  1, 58)  ( 48,  1, 66)  ( 46,  1, 71)  ( 42,  1, 75)  ( 39,  1, 78)
  0  0.3891E-04  0 -0.2102E-04  0 -0.1382E-04  0 -0.9223E-05  0 -0.6716E-05
   ( 50,  1, 76)  (  1,  1, 81)  (  3,  1, 60)  (  1,  1, 63)  (  2,  1, 50)
  0 -0.4747E-05  0 -0.3079E-05  0 -0.1995E-05  0 -0.1306E-05  0 -0.1053E-05
   (  1,  1, 54)  (  2,  1, 45)  (  4,  1, 40)  (  5,  1, 34)  (  5,  1, 25)
  0 -0.1025E-05  0 -0.1008E-05  0 -0.9943E-06  1 -0.2829E-06
   (  3,  1,  7)  (  2,  1, 11)  (  9,  1,  1)  ( 48,  1,  6)

 MAXIMUM RESIDUAL FOR EACH ITERATION (1 INDICATES THE FIRST INNER ITERATION):

    RESIDUAL       RESIDUAL       RESIDUAL       RESIDUAL       RESIDUAL    
   LAYER,ROW,COL  LAYER,ROW,COL  LAYER,ROW,COL  LAYER,ROW,COL  LAYER,ROW,COL
 ---------------------------------------------------------------------------
  1   8.179      0   5.250      0  -2.180      0  -1.327      0 -0.9574    
   ( 50,  1, 60)  ( 50,  1, 52)  ( 50,  1, 66)  ( 50,  1, 72)  ( 50,  1, 49)
  0 -0.5520      0 -0.3975      0  0.1829      0  0.1260      0  0.9575E-01
   ( 49,  1, 61)  ( 49,  1, 57)  ( 50,  1, 49)  ( 49,  1, 61)  ( 49,  1, 56)
  0  0.7668E-01  0  0.5693E-01  0 -0.4689E-01  0 -0.3537E-01  0  0.2944E-01
   ( 45,  1, 99)  ( 41,  1, 99)  ( 46,  1, 99)  ( 43,  1, 99)  ( 47,  1, 99)
  0  0.2898E-01  0  0.2486E-01  0 -0.2632E-01  1 -0.9701E-02
   ( 45,  1, 99)  ( 41,  1, 99)  ( 46,  1, 99)  ( 46,  1, 99)


 FLOW MODEL IS TRANSIENT
 FLOW MODEL CONTAINS CONSTANT-HEAD CELLS


 MAXIMUM STEPSIZE DURING WHICH ANY PARTICLE CANNOT MOVE MORE THAN ONE CELL
 =  9.310    (WHEN MIN. R.F.=1)  AT K=   1, I=   1, J=  99

 MAXIMUM STEPSIZE WHICH MEETS STABILITY CRITERION OF THE ADVECTION TERM
 (FOR PURE FINITE-DIFFERENCE OPTION, MIXELM=0) 
 =  9.083    (WHEN MIN. R.F.=1)  AT K=   1, I=   1, J=  99


 TOTAL NUMBER OF POINT SOURCES/SINKS PRESENT IN THE FLOW MODEL =       100

 MAXIMUM STEPSIZE WHICH MEETS STABILITY CRITERION OF THE SINK & SOURCE TERM
 =  122.8    (WHEN MIN. R.F.=1)  AT K=   1, I=   1, J=   1

 MAXIMUM STEPSIZE WHICH MEETS STABILITY CRITERION OF THE DISPERSION TERM
 =  2.074    (WHEN MIN. R.F.=1)  AT K=   1, I=   1, J=  99
     5 CALLS TO GCG PACKAGE FOR TRANSPORT TIME STEP  26 IN FLOW TIME STEP   1 STRESS PERIOD   4
    15 TOTAL ITERATIONS
 
 SOLVING FOR HEAD 


     2 CALLS TO PCG ROUTINE FOR TIME STEP   1 IN STRESS PERIOD    4
    20 TOTAL ITERATIONS

 MAXIMUM HEAD CHANGE FOR EACH ITERATION (1 INDICATES THE FIRST INNER ITERATION):

    HEAD CHANGE    HEAD CHANGE    HEAD CHANGE    HEAD CHANGE    HEAD CHANGE 
   LAYER,ROW,COL  LAYER,ROW,COL  LAYER,ROW,COL  LAYER,ROW,COL  LAYER,ROW,COL
 ---------------------------------------------------------------------------
  1  0.1140E-02  0  0.3730E-03  0  0.1852E-03  0  0.9841E-04  0  0.6290E-04
   ( 50,  1, 58)  ( 48,  1, 66)  ( 46,  1, 71)  ( 42,  1, 75)  ( 39,  1, 78)
  0  0.3875E-04  0 -0.2206E-04  0 -0.1321E-04  0 -0.8995E-05  0 -0.7315E-05
   ( 50,  1, 76)  (  3,  1, 73)  (  3,  1, 64)  (  1,  1, 60)  (  2,  1, 50)
  0 -0.5010E-05  0 -0.3019E-05  0 -0.1955E-05  0 -0.1379E-05  0 -0.1138E-05
   (  2,  1, 56)  (  3,  1, 47)  (  5,  1, 42)  (  1,  1, 36)  (  6,  1,  4)
  0 -0.1156E-05  0 -0.1121E-05  0 -0.1136E-05  0 -0.9999E-06  1 -0.2648E-06
   (  4,  1,  8)  (  2,  1, 11)  ( 12,  1,  2)  (  7,  1,  3)  ( 40,  1,  7)

 MAXIMUM RESIDUAL FOR EACH ITERATION (1 INDICATES THE FIRST INNER ITERATION):

    RESIDUAL       RESIDUAL       RESIDUAL       RESIDUAL       RESIDUAL    
   LAYER,ROW,COL  LAYER,ROW,COL  LAYER,ROW,COL  LAYER,ROW,COL  LAYER,ROW,COL
 ---------------------------------------------------------------------------
  1   8.145      0   5.218      0  -2.170      0  -1.326      0 -0.9574    
   ( 50,  1, 60)  ( 50,  1, 52)  ( 50,  1, 66)  ( 50,  1, 71)  ( 50,  1, 49)
  0 -0.5511      0 -0.3976      0  0.1847      0  0.1268      0  0.9686E-01
   ( 49,  1, 61)  ( 49,  1, 57)  ( 50,  1, 49)  ( 49,  1, 61)  ( 49,  1, 56)
  0  0.7635E-01  0  0.5696E-01  0 -0.4720E-01  0 -0.3629E-01  0  0.3044E-01
   ( 45,  1, 99)  ( 41,  1, 99)  ( 46,  1, 99)  ( 43,  1, 99)  ( 47,  1, 99)
  0  0.3142E-01  0  0.2734E-01  0 -0.2817E-01  0 -0.2630E-01  1 -0.1008E-01
   ( 45,  1, 99)  ( 42,  1, 99)  ( 46,  1, 99)  ( 44,  1, 99)  ( 43,  1, 99)


 FLOW MODEL IS TRANSIENT
 FLOW MODEL CONTAINS CONSTANT-HEAD CELLS


 MAXIMUM STEPSIZE DURING WHICH ANY PARTICLE CANNOT MOVE MORE THAN ONE CELL
 =  9.314    (WHEN MIN. R.F.=1)  AT K=   1, I=   1, J=  99

 MAXIMUM STEPSIZE WHICH MEETS STABILITY CRITERION OF THE ADVECTION TERM
 (FOR PURE FINITE-DIFFERENCE OPTION, MIXELM=0) 
 =  9.087    (WHEN MIN. R.F.=1)  AT K=   1, I=   1, J=  99


 TOTAL NUMBER OF POINT SOURCES/SINKS PRESENT IN THE FLOW MODEL =       100

 MAXIMUM STEPSIZE WHICH MEETS STABILITY CRITERION OF THE SINK & SOURCE TERM
 =  122.8    (WHEN MIN. R.F.=1)  AT K=   1, I=   1, J=   1

 MAXIMUM STEPSIZE WHICH MEETS STABILITY CRITERION OF THE DISPERSION TERM
 =  2.075    (WHEN MIN. R.F.=1)  AT K=   1, I=   1, J=  99
     5 CALLS TO GCG PACKAGE FOR TRANSPORT TIME STEP  27 IN FLOW TIME STEP   1 STRESS PERIOD   4
    15 TOTAL ITERATIONS
 
 SOLVING FOR HEAD 


     2 CALLS TO PCG ROUTINE FOR TIME STEP   1 IN STRESS PERIOD    4
    17 TOTAL ITERATIONS

 MAXIMUM HEAD CHANGE FOR EACH ITERATION (1 INDICATES THE FIRST INNER ITERATION):

    HEAD CHANGE    HEAD CHANGE    HEAD CHANGE    HEAD CHANGE    HEAD CHANGE 
   LAYER,ROW,COL  LAYER,ROW,COL  LAYER,ROW,COL  LAYER,ROW,COL  LAYER,ROW,COL
 ---------------------------------------------------------------------------
  1  0.1134E-02  0  0.3715E-03  0  0.1844E-03  0  0.9803E-04  0  0.6265E-04
   ( 50,  1, 58)  ( 48,  1, 65)  ( 46,  1, 71)  ( 42,  1, 75)  ( 39,  1, 78)
  0  0.3871E-04  0 -0.2124E-04  0 -0.1325E-04  0 -0.8978E-05  0 -0.6776E-05
   ( 50,  1, 76)  (  3,  1, 73)  (  3,  1, 61)  (  1,  1, 62)  (  2,  1, 50)
  0 -0.4789E-05  0 -0.3043E-05  0 -0.1929E-05  0 -0.1254E-05  0 -0.1002E-05
   (  1,  1, 54)  (  2,  1, 45)  (  4,  1, 39)  (  4,  1, 31)  (  5,  1, 24)
  0 -0.9627E-06  1 -0.2655E-06
   (  3,  1,  7)  (  8,  1, 72)

 MAXIMUM RESIDUAL FOR EACH ITERATION (1 INDICATES THE FIRST INNER ITERATION):

    RESIDUAL       RESIDUAL       RESIDUAL       RESIDUAL       RESIDUAL    
   LAYER,ROW,COL  LAYER,ROW,COL  LAYER,ROW,COL  LAYER,ROW,COL  LAYER,ROW,COL
 ---------------------------------------------------------------------------
  1   8.107      0   5.178      0  -2.165      0  -1.324      0 -0.9570    
   ( 50,  1, 60)  ( 50,  1, 52)  ( 50,  1, 65)  ( 50,  1, 71)  ( 50,  1, 49)
  0 -0.5495      0 -0.3952      0  0.1829      0  0.1254      0  0.9619E-01
   ( 49,  1, 60)  ( 49,  1, 56)  ( 50,  1, 48)  ( 49,  1, 61)  ( 49,  1, 56)
  0  0.7488E-01  0  0.5576E-01  0 -0.4518E-01  0 -0.3404E-01  0  0.2730E-01
   ( 45,  1, 99)  ( 41,  1, 99)  ( 46,  1, 99)  ( 43,  1, 99)  ( 47,  1, 99)
  0  0.2736E-01  1  0.9330E-02
   ( 45,  1, 99)  ( 44,  1, 99)


 FLOW MODEL IS TRANSIENT
 FLOW MODEL CONTAINS CONSTANT-HEAD CELLS


 MAXIMUM STEPSIZE DURING WHICH ANY PARTICLE CANNOT MOVE MORE THAN ONE CELL
 =  9.319    (WHEN MIN. R.F.=1)  AT K=   1, I=   1, J=  99

 MAXIMUM STEPSIZE WHICH MEETS STABILITY CRITERION OF THE ADVECTION TERM
 (FOR PURE FINITE-DIFFERENCE OPTION, MIXELM=0) 
 =  9.091    (WHEN MIN. R.F.=1)  AT K=   1, I=   1, J=  99


 TOTAL NUMBER OF POINT SOURCES/SINKS PRESENT IN THE FLOW MODEL =       100

 MAXIMUM STEPSIZE WHICH MEETS STABILITY CRITERION OF THE SINK & SOURCE TERM
 =  122.8    (WHEN MIN. R.F.=1)  AT K=   1, I=   1, J=   1

 MAXIMUM STEPSIZE WHICH MEETS STABILITY CRITERION OF THE DISPERSION TERM
 =  2.076    (WHEN MIN. R.F.=1)  AT K=   1, I=   1, J=  99
     5 CALLS TO GCG PACKAGE FOR TRANSPORT TIME STEP  28 IN FLOW TIME STEP   1 STRESS PERIOD   4
    15 TOTAL ITERATIONS
 
 SOLVING FOR HEAD 


     2 CALLS TO PCG ROUTINE FOR TIME STEP   1 IN STRESS PERIOD    4
    21 TOTAL ITERATIONS

 MAXIMUM HEAD CHANGE FOR EACH ITERATION (1 INDICATES THE FIRST INNER ITERATION):

    HEAD CHANGE    HEAD CHANGE    HEAD CHANGE    HEAD CHANGE    HEAD CHANGE 
   LAYER,ROW,COL  LAYER,ROW,COL  LAYER,ROW,COL  LAYER,ROW,COL  LAYER,ROW,COL
 ---------------------------------------------------------------------------
  1  0.1129E-02  0  0.3698E-03  0  0.1835E-03  0  0.9766E-04  0  0.6250E-04
   ( 50,  1, 57)  ( 48,  1, 65)  ( 46,  1, 71)  ( 42,  1, 74)  ( 39,  1, 78)
  0  0.3858E-04  0 -0.2220E-04  0 -0.1301E-04  0 -0.9160E-05  0 -0.7275E-05
   ( 50,  1, 76)  (  3,  1, 73)  (  3,  1, 64)  (  1,  1, 60)  (  2,  1, 50)
  0 -0.4960E-05  0 -0.2992E-05  0 -0.1958E-05  0 -0.1400E-05  0 -0.1174E-05
   (  2,  1, 56)  (  3,  1, 47)  (  9,  1, 35)  (  1,  1, 36)  (  6,  1,  4)
  0 -0.1211E-05  0 -0.1176E-05  0 -0.1182E-05  0 -0.1020E-05  0 -0.9190E-06
   (  4,  1,  7)  (  1,  1, 10)  ( 12,  1,  2)  (  7,  1,  3)  ( 49,  1, 13)
  1 -0.2175E-06
   ( 44,  1, 14)

 MAXIMUM RESIDUAL FOR EACH ITERATION (1 INDICATES THE FIRST INNER ITERATION):

    RESIDUAL       RESIDUAL       RESIDUAL       RESIDUAL       RESIDUAL    
   LAYER,ROW,COL  LAYER,ROW,COL  LAYER,ROW,COL  LAYER,ROW,COL  LAYER,ROW,COL
 ---------------------------------------------------------------------------
  1   8.066      0   5.156      0  -2.163      0  -1.325      0 -0.9556    
   ( 50,  1, 60)  ( 50,  1, 51)  ( 50,  1, 65)  ( 50,  1, 71)  ( 50,  1, 49)
  0 -0.5499      0 -0.3962      0  0.1835      0  0.1265      0  0.9552E-01
   ( 49,  1, 60)  ( 49,  1, 56)  ( 50,  1, 48)  ( 49,  1, 60)  ( 49,  1, 56)
  0  0.7451E-01  0  0.5620E-01  0 -0.4655E-01  0 -0.3610E-01  0  0.3045E-01
   ( 45,  1, 99)  ( 41,  1, 99)  ( 46,  1, 99)  ( 43,  1, 99)  ( 47,  1, 99)
  0  0.3189E-01  0  0.2802E-01  0 -0.2850E-01  0 -0.2663E-01  0  0.2088E-01
   ( 45,  1, 99)  ( 42,  1, 99)  ( 46,  1, 99)  ( 44,  1, 99)  ( 48,  1, 99)
  1 -0.7858E-02
   ( 40,  1, 99)


 FLOW MODEL IS TRANSIENT
 FLOW MODEL CONTAINS CONSTANT-HEAD CELLS


 MAXIMUM STEPSIZE DURING WHICH ANY PARTICLE CANNOT MOVE MORE THAN ONE CELL
 =  9.323    (WHEN MIN. R.F.=1)  AT K=   1, I=   1, J=  99

 MAXIMUM STEPSIZE WHICH MEETS STABILITY CRITERION OF THE ADVECTION TERM
 (FOR PURE FINITE-DIFFERENCE OPTION, MIXELM=0) 
 =  9.095    (WHEN MIN. R.F.=1)  AT K=   1, I=   1, J=  99


 TOTAL NUMBER OF POINT SOURCES/SINKS PRESENT IN THE FLOW MODEL =       100

 MAXIMUM STEPSIZE WHICH MEETS STABILITY CRITERION OF THE SINK & SOURCE TERM
 =  122.8    (WHEN MIN. R.F.=1)  AT K=   1, I=   1, J=   1

 MAXIMUM STEPSIZE WHICH MEETS STABILITY CRITERION OF THE DISPERSION TERM
 =  2.077    (WHEN MIN. R.F.=1)  AT K=   1, I=   1, J=  99
     5 CALLS TO GCG PACKAGE FOR TRANSPORT TIME STEP  29 IN FLOW TIME STEP   1 STRESS PERIOD   4
    15 TOTAL ITERATIONS
 
 SOLVING FOR HEAD 


     2 CALLS TO PCG ROUTINE FOR TIME STEP   1 IN STRESS PERIOD    4
    20 TOTAL ITERATIONS

 MAXIMUM HEAD CHANGE FOR EACH ITERATION (1 INDICATES THE FIRST INNER ITERATION):

    HEAD CHANGE    HEAD CHANGE    HEAD CHANGE    HEAD CHANGE    HEAD CHANGE 
   LAYER,ROW,COL  LAYER,ROW,COL  LAYER,ROW,COL  LAYER,ROW,COL  LAYER,ROW,COL
 ---------------------------------------------------------------------------
  1  0.1125E-02  0  0.3684E-03  0  0.1830E-03  0  0.9776E-04  0  0.6275E-04
   ( 50,  1, 57)  ( 48,  1, 65)  ( 46,  1, 70)  ( 42,  1, 74)  ( 39,  1, 77)
  0  0.3852E-04  0 -0.2185E-04  0 -0.1294E-04  0 -0.8934E-05  0 -0.7191E-05
   ( 50,  1, 76)  (  3,  1, 73)  (  3,  1, 63)  (  1,  1, 60)  (  2,  1, 50)
  0 -0.4849E-05  0 -0.2880E-05  0 -0.1871E-05  0 -0.1283E-05  0 -0.1044E-05
   (  2,  1, 56)  (  2,  1, 45)  (  5,  1, 42)  (  1,  1, 35)  (  6,  1,  4)
  0 -0.1061E-05  0 -0.1014E-05  0 -0.1018E-05  0 -0.9250E-06  1 -0.2354E-06
   (  4,  1,  7)  (  2,  1, 11)  ( 12,  1,  2)  (  7,  1,  3)  ( 40,  1,  7)

 MAXIMUM RESIDUAL FOR EACH ITERATION (1 INDICATES THE FIRST INNER ITERATION):

    RESIDUAL       RESIDUAL       RESIDUAL       RESIDUAL       RESIDUAL    
   LAYER,ROW,COL  LAYER,ROW,COL  LAYER,ROW,COL  LAYER,ROW,COL  LAYER,ROW,COL
 ---------------------------------------------------------------------------
  1   8.041      0   5.157      0  -2.157      0  -1.318      0 -0.9529    
   ( 50,  1, 59)  ( 50,  1, 51)  ( 50,  1, 65)  ( 50,  1, 71)  ( 50,  1, 49)
  0 -0.5495      0 -0.3945      0  0.1808      0  0.1249      0  0.9393E-01
   ( 49,  1, 60)  ( 49,  1, 56)  ( 50,  1, 48)  ( 49,  1, 60)  ( 49,  1, 55)
  0  0.7265E-01  0  0.5469E-01  0 -0.4453E-01  0 -0.3393E-01  0  0.2750E-01
   ( 45,  1, 99)  ( 41,  1, 99)  ( 46,  1, 99)  ( 43,  1, 99)  ( 47,  1, 99)
  0  0.2812E-01  0  0.2428E-01  0 -0.2457E-01  0 -0.2366E-01  1 -0.9045E-02
   ( 45,  1, 99)  ( 42,  1, 99)  ( 46,  1, 99)  ( 44,  1, 99)  ( 43,  1, 99)


 FLOW MODEL IS TRANSIENT
 FLOW MODEL CONTAINS CONSTANT-HEAD CELLS


 MAXIMUM STEPSIZE DURING WHICH ANY PARTICLE CANNOT MOVE MORE THAN ONE CELL
 =  9.327    (WHEN MIN. R.F.=1)  AT K=   1, I=   1, J=  99

 MAXIMUM STEPSIZE WHICH MEETS STABILITY CRITERION OF THE ADVECTION TERM
 (FOR PURE FINITE-DIFFERENCE OPTION, MIXELM=0) 
 =  9.099    (WHEN MIN. R.F.=1)  AT K=   1, I=   1, J=  99


 TOTAL NUMBER OF POINT SOURCES/SINKS PRESENT IN THE FLOW MODEL =       100

 MAXIMUM STEPSIZE WHICH MEETS STABILITY CRITERION OF THE SINK & SOURCE TERM
 =  122.8    (WHEN MIN. R.F.=1)  AT K=   1, I=   1, J=   1

 MAXIMUM STEPSIZE WHICH MEETS STABILITY CRITERION OF THE DISPERSION TERM
 =  2.078    (WHEN MIN. R.F.=1)  AT K=   1, I=   1, J=  99
     5 CALLS TO GCG PACKAGE FOR TRANSPORT TIME STEP  30 IN FLOW TIME STEP   1 STRESS PERIOD   4
    15 TOTAL ITERATIONS
 
 SOLVING FOR HEAD 


     2 CALLS TO PCG ROUTINE FOR TIME STEP   1 IN STRESS PERIOD    4
    20 TOTAL ITERATIONS

 MAXIMUM HEAD CHANGE FOR EACH ITERATION (1 INDICATES THE FIRST INNER ITERATION):

    HEAD CHANGE    HEAD CHANGE    HEAD CHANGE    HEAD CHANGE    HEAD CHANGE 
   LAYER,ROW,COL  LAYER,ROW,COL  LAYER,ROW,COL  LAYER,ROW,COL  LAYER,ROW,COL
 ---------------------------------------------------------------------------
  1  0.1121E-02  0  0.3665E-03  0  0.1824E-03  0  0.9733E-04  0  0.6230E-04
   ( 50,  1, 57)  ( 48,  1, 65)  ( 46,  1, 70)  ( 42,  1, 74)  ( 39,  1, 77)
  0  0.3850E-04  0 -0.2120E-04  0 -0.1299E-04  0 -0.8956E-05  0 -0.6827E-05
   ( 50,  1, 75)  (  3,  1, 73)  (  3,  1, 60)  (  1,  1, 61)  (  2,  1, 49)
  0 -0.4822E-05  0 -0.3085E-05  0 -0.1984E-05  0 -0.1312E-05  0 -0.1088E-05
   (  1,  1, 53)  (  2,  1, 44)  (  4,  1, 39)  (  4,  1, 30)  (  6,  1,  4)
  0 -0.1102E-05  0 -0.1073E-05  0 -0.1059E-05  0 -0.9258E-06  1 -0.2607E-06
   (  3,  1,  7)  (  5,  1,  4)  ( 10,  1,  1)  (  2,  1,  2)  ( 40,  1,  7)

 MAXIMUM RESIDUAL FOR EACH ITERATION (1 INDICATES THE FIRST INNER ITERATION):

    RESIDUAL       RESIDUAL       RESIDUAL       RESIDUAL       RESIDUAL    
   LAYER,ROW,COL  LAYER,ROW,COL  LAYER,ROW,COL  LAYER,ROW,COL  LAYER,ROW,COL
 ---------------------------------------------------------------------------
  1   8.021      0   5.155      0  -2.151      0  -1.318      0 -0.9528    
   ( 50,  1, 59)  ( 50,  1, 51)  ( 50,  1, 65)  ( 50,  1, 71)  ( 50,  1, 49)
  0 -0.5477      0 -0.3952      0  0.1833      0  0.1249      0  0.9558E-01
   ( 49,  1, 60)  ( 49,  1, 56)  ( 50,  1, 48)  ( 49,  1, 60)  ( 49,  1, 55)
  0  0.7239E-01  0  0.5488E-01  0 -0.4468E-01  0 -0.3458E-01  0  0.2846E-01
   ( 45,  1, 99)  ( 41,  1, 99)  ( 46,  1, 99)  ( 43,  1, 99)  ( 47,  1, 99)
  0  0.2966E-01  0  0.2578E-01  0 -0.2621E-01  0 -0.2481E-01  1 -0.9573E-02
   ( 45,  1, 99)  ( 42,  1, 99)  ( 46,  1, 99)  ( 44,  1, 99)  ( 43,  1, 99)


 FLOW MODEL IS TRANSIENT
 FLOW MODEL CONTAINS CONSTANT-HEAD CELLS


 MAXIMUM STEPSIZE DURING WHICH ANY PARTICLE CANNOT MOVE MORE THAN ONE CELL
 =  9.332    (WHEN MIN. R.F.=1)  AT K=   1, I=   1, J=  99

 MAXIMUM STEPSIZE WHICH MEETS STABILITY CRITERION OF THE ADVECTION TERM
 (FOR PURE FINITE-DIFFERENCE OPTION, MIXELM=0) 
 =  9.104    (WHEN MIN. R.F.=1)  AT K=   1, I=   1, J=  99


 TOTAL NUMBER OF POINT SOURCES/SINKS PRESENT IN THE FLOW MODEL =       100

 MAXIMUM STEPSIZE WHICH MEETS STABILITY CRITERION OF THE SINK & SOURCE TERM
 =  122.8    (WHEN MIN. R.F.=1)  AT K=   1, I=   1, J=   1

 MAXIMUM STEPSIZE WHICH MEETS STABILITY CRITERION OF THE DISPERSION TERM
 =  2.079    (WHEN MIN. R.F.=1)  AT K=   1, I=   1, J=  99
     5 CALLS TO GCG PACKAGE FOR TRANSPORT TIME STEP  31 IN FLOW TIME STEP   1 STRESS PERIOD   4
    15 TOTAL ITERATIONS
 
 SOLVING FOR HEAD 


     2 CALLS TO PCG ROUTINE FOR TIME STEP   1 IN STRESS PERIOD    4
    20 TOTAL ITERATIONS

 MAXIMUM HEAD CHANGE FOR EACH ITERATION (1 INDICATES THE FIRST INNER ITERATION):

    HEAD CHANGE    HEAD CHANGE    HEAD CHANGE    HEAD CHANGE    HEAD CHANGE 
   LAYER,ROW,COL  LAYER,ROW,COL  LAYER,ROW,COL  LAYER,ROW,COL  LAYER,ROW,COL
 ---------------------------------------------------------------------------
  1  0.1117E-02  0  0.3647E-03  0  0.1817E-03  0  0.9704E-04  0  0.6220E-04
   ( 50,  1, 57)  ( 48,  1, 65)  ( 46,  1, 70)  ( 42,  1, 74)  ( 39,  1, 77)
  0  0.3846E-04  0 -0.2104E-04  0 -0.1314E-04  0 -0.9034E-05  0 -0.6766E-05
   ( 50,  1, 75)  (  3,  1, 73)  (  3,  1, 60)  (  1,  1, 61)  (  2,  1, 49)
  0 -0.4740E-05  0 -0.3078E-05  0 -0.2001E-05  0 -0.1335E-05  0 -0.1136E-05
   (  1,  1, 53)  (  3,  1, 46)  (  4,  1, 39)  (  1,  1, 36)  (  6,  1,  4)
  0 -0.1173E-05  0 -0.1138E-05  0 -0.1110E-05  0 -0.9498E-06  1 -0.2667E-06
   (  4,  1,  7)  (  5,  1,  4)  ( 10,  1,  1)  (  3,  1,  3)  ( 40,  1,  7)

 MAXIMUM RESIDUAL FOR EACH ITERATION (1 INDICATES THE FIRST INNER ITERATION):

    RESIDUAL       RESIDUAL       RESIDUAL       RESIDUAL       RESIDUAL    
   LAYER,ROW,COL  LAYER,ROW,COL  LAYER,ROW,COL  LAYER,ROW,COL  LAYER,ROW,COL
 ---------------------------------------------------------------------------
  1   7.996      0   5.140      0  -2.144      0  -1.314      0 -0.9505    
   ( 50,  1, 59)  ( 50,  1, 51)  ( 50,  1, 65)  ( 50,  1, 71)  ( 50,  1, 49)
  0 -0.5457      0 -0.3923      0  0.1804      0  0.1243      0  0.9416E-01
   ( 49,  1, 60)  ( 49,  1, 56)  ( 50,  1, 48)  ( 49,  1, 60)  ( 49,  1, 55)
  0  0.7111E-01  0  0.5458E-01  0 -0.4462E-01  0 -0.3491E-01  0  0.2921E-01
   ( 45,  1, 99)  ( 41,  1, 99)  ( 46,  1, 99)  ( 43,  1, 99)  ( 47,  1, 99)
  0  0.3064E-01  0  0.2689E-01  0 -0.2726E-01  0 -0.2548E-01  1 -0.9960E-02
   ( 45,  1, 99)  ( 41,  1, 99)  ( 46,  1, 99)  ( 44,  1, 99)  ( 43,  1, 99)


 FLOW MODEL IS TRANSIENT
 FLOW MODEL CONTAINS CONSTANT-HEAD CELLS


 MAXIMUM STEPSIZE DURING WHICH ANY PARTICLE CANNOT MOVE MORE THAN ONE CELL
 =  9.336    (WHEN MIN. R.F.=1)  AT K=   1, I=   1, J=  99

 MAXIMUM STEPSIZE WHICH MEETS STABILITY CRITERION OF THE ADVECTION TERM
 (FOR PURE FINITE-DIFFERENCE OPTION, MIXELM=0) 
 =  9.108    (WHEN MIN. R.F.=1)  AT K=   1, I=   1, J=  99


 TOTAL NUMBER OF POINT SOURCES/SINKS PRESENT IN THE FLOW MODEL =       100

 MAXIMUM STEPSIZE WHICH MEETS STABILITY CRITERION OF THE SINK & SOURCE TERM
 =  122.8    (WHEN MIN. R.F.=1)  AT K=   1, I=   1, J=   1

 MAXIMUM STEPSIZE WHICH MEETS STABILITY CRITERION OF THE DISPERSION TERM
 =  2.080    (WHEN MIN. R.F.=1)  AT K=   1, I=   1, J=  99
     5 CALLS TO GCG PACKAGE FOR TRANSPORT TIME STEP  32 IN FLOW TIME STEP   1 STRESS PERIOD   4
    15 TOTAL ITERATIONS
 
 SOLVING FOR HEAD 


     2 CALLS TO PCG ROUTINE FOR TIME STEP   1 IN STRESS PERIOD    4
    20 TOTAL ITERATIONS

 MAXIMUM HEAD CHANGE FOR EACH ITERATION (1 INDICATES THE FIRST INNER ITERATION):

    HEAD CHANGE    HEAD CHANGE    HEAD CHANGE    HEAD CHANGE    HEAD CHANGE 
   LAYER,ROW,COL  LAYER,ROW,COL  LAYER,ROW,COL  LAYER,ROW,COL  LAYER,ROW,COL
 ---------------------------------------------------------------------------
  1  0.1112E-02  0  0.3627E-03  0  0.1812E-03  0  0.9690E-04  0  0.6223E-04
   ( 50,  1, 57)  ( 48,  1, 65)  ( 46,  1, 70)  ( 42,  1, 74)  ( 39,  1, 77)
  0  0.3838E-04  0 -0.2101E-04  0 -0.1297E-04  0 -0.8998E-05  0 -0.6706E-05
   ( 50,  1, 75)  (  2,  1, 73)  (  3,  1, 60)  (  1,  1, 61)  (  2,  1, 49)
  0 -0.4671E-05  0 -0.3024E-05  0 -0.1945E-05  0 -0.1275E-05  0 -0.1059E-05
   (  1,  1, 53)  (  2,  1, 44)  (  4,  1, 39)  (  1,  1, 36)  (  6,  1,  4)
  0 -0.1083E-05  0 -0.1045E-05  0 -0.1023E-05  0 -0.9115E-06  1 -0.2517E-06
   (  4,  1,  7)  (  5,  1,  4)  ( 10,  1,  1)  (  3,  1,  3)  ( 40,  1,  7)

 MAXIMUM RESIDUAL FOR EACH ITERATION (1 INDICATES THE FIRST INNER ITERATION):

    RESIDUAL       RESIDUAL       RESIDUAL       RESIDUAL       RESIDUAL    
   LAYER,ROW,COL  LAYER,ROW,COL  LAYER,ROW,COL  LAYER,ROW,COL  LAYER,ROW,COL
 ---------------------------------------------------------------------------
  1   7.965      0   5.119      0  -2.133      0  -1.308      0 -0.9482    
   ( 50,  1, 59)  ( 50,  1, 51)  ( 50,  1, 65)  ( 50,  1, 71)  ( 50,  1, 48)
  0 -0.5441      0 -0.3911      0  0.1796      0  0.1236      0  0.9354E-01
   ( 49,  1, 60)  ( 49,  1, 56)  ( 50,  1, 48)  ( 49,  1, 60)  ( 49,  1, 55)
  0  0.6986E-01  0  0.5348E-01  0 -0.4325E-01  0 -0.3352E-01  0  0.2725E-01
   ( 45,  1, 99)  ( 41,  1, 99)  ( 46,  1, 99)  ( 43,  1, 99)  ( 47,  1, 99)
  0  0.2849E-01  0  0.2474E-01  0 -0.2495E-01  0 -0.2379E-01  1 -0.9256E-02
   ( 45,  1, 99)  ( 41,  1, 99)  ( 46,  1, 99)  ( 44,  1, 99)  ( 43,  1, 99)


 FLOW MODEL IS TRANSIENT
 FLOW MODEL CONTAINS CONSTANT-HEAD CELLS


 MAXIMUM STEPSIZE DURING WHICH ANY PARTICLE CANNOT MOVE MORE THAN ONE CELL
 =  9.340    (WHEN MIN. R.F.=1)  AT K=   1, I=   1, J=  99

 MAXIMUM STEPSIZE WHICH MEETS STABILITY CRITERION OF THE ADVECTION TERM
 (FOR PURE FINITE-DIFFERENCE OPTION, MIXELM=0) 
 =  9.112    (WHEN MIN. R.F.=1)  AT K=   1, I=   1, J=  99


 TOTAL NUMBER OF POINT SOURCES/SINKS PRESENT IN THE FLOW MODEL =       100

 MAXIMUM STEPSIZE WHICH MEETS STABILITY CRITERION OF THE SINK & SOURCE TERM
 =  122.8    (WHEN MIN. R.F.=1)  AT K=   1, I=   1, J=   1

 MAXIMUM STEPSIZE WHICH MEETS STABILITY CRITERION OF THE DISPERSION TERM
 =  2.081    (WHEN MIN. R.F.=1)  AT K=   1, I=   1, J=  99
     5 CALLS TO GCG PACKAGE FOR TRANSPORT TIME STEP  33 IN FLOW TIME STEP   1 STRESS PERIOD   4
    15 TOTAL ITERATIONS
 
 SOLVING FOR HEAD 


     2 CALLS TO PCG ROUTINE FOR TIME STEP   1 IN STRESS PERIOD    4
    20 TOTAL ITERATIONS

 MAXIMUM HEAD CHANGE FOR EACH ITERATION (1 INDICATES THE FIRST INNER ITERATION):

    HEAD CHANGE    HEAD CHANGE    HEAD CHANGE    HEAD CHANGE    HEAD CHANGE 
   LAYER,ROW,COL  LAYER,ROW,COL  LAYER,ROW,COL  LAYER,ROW,COL  LAYER,ROW,COL
 ---------------------------------------------------------------------------
  1  0.1107E-02  0  0.3608E-03  0  0.1806E-03  0  0.9660E-04  0  0.6213E-04
   ( 50,  1, 57)  ( 48,  1, 65)  ( 46,  1, 70)  ( 42,  1, 74)  ( 39,  1, 77)
  0  0.3830E-04  0 -0.2096E-04  0 -0.1303E-04  0 -0.9019E-05  0 -0.6788E-05
   ( 50,  1, 75)  (  2,  1, 73)  (  3,  1, 60)  (  1,  1, 61)  (  2,  1, 49)
  0 -0.4759E-05  0 -0.3119E-05  0 -0.2043E-05  0 -0.1380E-05  0 -0.1220E-05
   (  1,  1, 53)  (  2,  1, 44)  (  4,  1, 39)  (  1,  1, 35)  (  6,  1,  4)
  0 -0.1288E-05  0 -0.1247E-05  0 -0.1193E-05  0 -0.9898E-06  1 -0.2782E-06
   (  4,  1,  7)  (  5,  1,  4)  ( 10,  1,  1)  (  3,  1,  3)  ( 40,  1,  7)

 MAXIMUM RESIDUAL FOR EACH ITERATION (1 INDICATES THE FIRST INNER ITERATION):

    RESIDUAL       RESIDUAL       RESIDUAL       RESIDUAL       RESIDUAL    
   LAYER,ROW,COL  LAYER,ROW,COL  LAYER,ROW,COL  LAYER,ROW,COL  LAYER,ROW,COL
 ---------------------------------------------------------------------------
  1   7.931      0   5.091      0  -2.123      0  -1.307      0 -0.9482    
   ( 50,  1, 59)  ( 50,  1, 51)  ( 50,  1, 64)  ( 50,  1, 70)  ( 50,  1, 48)
  0 -0.5425      0 -0.3889      0  0.1787      0  0.1236      0  0.9352E-01
   ( 49,  1, 59)  ( 49,  1, 56)  ( 50,  1, 48)  ( 49,  1, 59)  ( 49,  1, 55)
  0  0.6953E-01  0  0.5400E-01  0 -0.4445E-01  0 -0.3548E-01  0  0.3031E-01
   ( 45,  1, 99)  ( 41,  1, 99)  ( 46,  1, 99)  ( 43,  1, 99)  ( 47,  1, 99)
  0  0.3246E-01  0  0.2880E-01  0 -0.2874E-01  0 -0.2669E-01  1 -0.1043E-01
   ( 45,  1, 99)  ( 41,  1, 99)  ( 46,  1, 99)  ( 44,  1, 99)  ( 43,  1, 99)


 FLOW MODEL IS TRANSIENT
 FLOW MODEL CONTAINS CONSTANT-HEAD CELLS


 MAXIMUM STEPSIZE DURING WHICH ANY PARTICLE CANNOT MOVE MORE THAN ONE CELL
 =  9.344    (WHEN MIN. R.F.=1)  AT K=   1, I=   1, J=  99

 MAXIMUM STEPSIZE WHICH MEETS STABILITY CRITERION OF THE ADVECTION TERM
 (FOR PURE FINITE-DIFFERENCE OPTION, MIXELM=0) 
 =  9.116    (WHEN MIN. R.F.=1)  AT K=   1, I=   1, J=  99


 TOTAL NUMBER OF POINT SOURCES/SINKS PRESENT IN THE FLOW MODEL =       100

 MAXIMUM STEPSIZE WHICH MEETS STABILITY CRITERION OF THE SINK & SOURCE TERM
 =  122.8    (WHEN MIN. R.F.=1)  AT K=   1, I=   1, J=   1

 MAXIMUM STEPSIZE WHICH MEETS STABILITY CRITERION OF THE DISPERSION TERM
 =  2.082    (WHEN MIN. R.F.=1)  AT K=   1, I=   1, J=  99
     5 CALLS TO GCG PACKAGE FOR TRANSPORT TIME STEP  34 IN FLOW TIME STEP   1 STRESS PERIOD   4
    15 TOTAL ITERATIONS
 
 SOLVING FOR HEAD 


     2 CALLS TO PCG ROUTINE FOR TIME STEP   1 IN STRESS PERIOD    4
    20 TOTAL ITERATIONS

 MAXIMUM HEAD CHANGE FOR EACH ITERATION (1 INDICATES THE FIRST INNER ITERATION):

    HEAD CHANGE    HEAD CHANGE    HEAD CHANGE    HEAD CHANGE    HEAD CHANGE 
   LAYER,ROW,COL  LAYER,ROW,COL  LAYER,ROW,COL  LAYER,ROW,COL  LAYER,ROW,COL
 ---------------------------------------------------------------------------
  1  0.1102E-02  0  0.3593E-03  0  0.1799E-03  0  0.9629E-04  0  0.6207E-04
   ( 50,  1, 57)  ( 48,  1, 64)  ( 46,  1, 70)  ( 42,  1, 74)  ( 39,  1, 77)
  0  0.3820E-04  0 -0.2097E-04  0 -0.1290E-04  0 -0.9016E-05  0 -0.6703E-05
   ( 50,  1, 75)  (  2,  1, 73)  (  3,  1, 59)  (  1,  1, 61)  (  2,  1, 49)
  0 -0.4705E-05  0 -0.3103E-05  0 -0.2018E-05  0 -0.1362E-05  0 -0.1187E-05
   (  1,  1, 53)  (  2,  1, 44)  (  4,  1, 39)  (  1,  1, 35)  (  6,  1,  4)
  0 -0.1258E-05  0 -0.1216E-05  0 -0.1161E-05  0 -0.9796E-06  1 -0.2724E-06
   (  4,  1,  7)  (  1,  1, 10)  ( 10,  1,  1)  (  3,  1,  3)  ( 40,  1,  7)

 MAXIMUM RESIDUAL FOR EACH ITERATION (1 INDICATES THE FIRST INNER ITERATION):

    RESIDUAL       RESIDUAL       RESIDUAL       RESIDUAL       RESIDUAL    
   LAYER,ROW,COL  LAYER,ROW,COL  LAYER,ROW,COL  LAYER,ROW,COL  LAYER,ROW,COL
 ---------------------------------------------------------------------------
  1   7.896      0   5.053      0  -2.123      0  -1.305      0 -0.9480    
   ( 50,  1, 59)  ( 50,  1, 51)  ( 50,  1, 64)  ( 50,  1, 70)  ( 50,  1, 48)
  0 -0.5422      0 -0.3878      0  0.1776      0  0.1232      0  0.9304E-01
   ( 49,  1, 59)  ( 49,  1, 55)  ( 50,  1, 48)  ( 49,  1, 59)  ( 49,  1, 55)
  0  0.6837E-01  0  0.5337E-01  0 -0.4359E-01  0 -0.3475E-01  0  0.2935E-01
   ( 45,  1, 99)  ( 42,  1, 99)  ( 46,  1, 99)  ( 43,  1, 99)  ( 47,  1, 99)
  0  0.3162E-01  0  0.2805E-01  0 -0.2788E-01  0 -0.2608E-01  1 -0.1018E-01
   ( 45,  1, 99)  ( 41,  1, 99)  ( 46,  1, 99)  ( 44,  1, 99)  ( 43,  1, 99)


 FLOW MODEL IS TRANSIENT
 FLOW MODEL CONTAINS CONSTANT-HEAD CELLS


 MAXIMUM STEPSIZE DURING WHICH ANY PARTICLE CANNOT MOVE MORE THAN ONE CELL
 =  9.349    (WHEN MIN. R.F.=1)  AT K=   1, I=   1, J=  99

 MAXIMUM STEPSIZE WHICH MEETS STABILITY CRITERION OF THE ADVECTION TERM
 (FOR PURE FINITE-DIFFERENCE OPTION, MIXELM=0) 
 =  9.120    (WHEN MIN. R.F.=1)  AT K=   1, I=   1, J=  99


 TOTAL NUMBER OF POINT SOURCES/SINKS PRESENT IN THE FLOW MODEL =       100

 MAXIMUM STEPSIZE WHICH MEETS STABILITY CRITERION OF THE SINK & SOURCE TERM
 =  122.8    (WHEN MIN. R.F.=1)  AT K=   1, I=   1, J=   1

 MAXIMUM STEPSIZE WHICH MEETS STABILITY CRITERION OF THE DISPERSION TERM
 =  2.083    (WHEN MIN. R.F.=1)  AT K=   1, I=   1, J=  99
     5 CALLS TO GCG PACKAGE FOR TRANSPORT TIME STEP  35 IN FLOW TIME STEP   1 STRESS PERIOD   4
    15 TOTAL ITERATIONS
 
 SOLVING FOR HEAD 


     2 CALLS TO PCG ROUTINE FOR TIME STEP   1 IN STRESS PERIOD    4
    20 TOTAL ITERATIONS

 MAXIMUM HEAD CHANGE FOR EACH ITERATION (1 INDICATES THE FIRST INNER ITERATION):

    HEAD CHANGE    HEAD CHANGE    HEAD CHANGE    HEAD CHANGE    HEAD CHANGE 
   LAYER,ROW,COL  LAYER,ROW,COL  LAYER,ROW,COL  LAYER,ROW,COL  LAYER,ROW,COL
 ---------------------------------------------------------------------------
  1  0.1097E-02  0  0.3578E-03  0  0.1791E-03  0  0.9601E-04  0  0.6187E-04
   ( 50,  1, 56)  ( 48,  1, 64)  ( 46,  1, 70)  ( 42,  1, 73)  ( 39,  1, 77)
  0  0.3811E-04  0 -0.2083E-04  0 -0.1285E-04  0 -0.8922E-05  0 -0.6691E-05
   ( 50,  1, 75)  (  2,  1, 73)  (  3,  1, 59)  (  1,  1, 61)  (  2,  1, 49)
  0 -0.4676E-05  0 -0.3047E-05  0 -0.1959E-05  0 -0.1299E-05  0 -0.1111E-05
   (  1,  1, 53)  (  2,  1, 44)  (  4,  1, 39)  (  1,  1, 35)  (  6,  1,  4)
  0 -0.1169E-05  0 -0.1127E-05  0 -0.1089E-05  0 -0.9485E-06  1 -0.2587E-06
   (  4,  1,  7)  (  1,  1, 10)  ( 10,  1,  1)  (  3,  1,  3)  ( 41,  1,  7)

 MAXIMUM RESIDUAL FOR EACH ITERATION (1 INDICATES THE FIRST INNER ITERATION):

    RESIDUAL       RESIDUAL       RESIDUAL       RESIDUAL       RESIDUAL    
   LAYER,ROW,COL  LAYER,ROW,COL  LAYER,ROW,COL  LAYER,ROW,COL  LAYER,ROW,COL
 ---------------------------------------------------------------------------
  1   7.856      0   5.023      0  -2.118      0  -1.302      0 -0.9460    
   ( 50,  1, 58)  ( 50,  1, 50)  ( 50,  1, 64)  ( 50,  1, 70)  ( 50,  1, 48)
  0 -0.5413      0 -0.3878      0  0.1768      0  0.1227      0  0.9199E-01
   ( 49,  1, 59)  ( 49,  1, 55)  ( 50,  1, 47)  ( 49,  1, 59)  ( 49,  1, 55)
  0  0.6698E-01  0  0.5252E-01  0 -0.4218E-01  0 -0.3340E-01  0  0.2735E-01
   ( 45,  1, 99)  ( 42,  1, 99)  ( 46,  1, 99)  ( 43,  1, 99)  ( 47,  1, 99)
  0  0.2942E-01  0  0.2590E-01  0 -0.2566E-01  0 -0.2453E-01  1 -0.9497E-02
   ( 45,  1, 99)  ( 42,  1, 99)  ( 46,  1, 99)  ( 44,  1, 99)  ( 43,  1, 99)


 FLOW MODEL IS TRANSIENT
 FLOW MODEL CONTAINS CONSTANT-HEAD CELLS


 MAXIMUM STEPSIZE DURING WHICH ANY PARTICLE CANNOT MOVE MORE THAN ONE CELL
 =  9.353    (WHEN MIN. R.F.=1)  AT K=   1, I=   1, J=  99

 MAXIMUM STEPSIZE WHICH MEETS STABILITY CRITERION OF THE ADVECTION TERM
 (FOR PURE FINITE-DIFFERENCE OPTION, MIXELM=0) 
 =  9.124    (WHEN MIN. R.F.=1)  AT K=   1, I=   1, J=  99


 TOTAL NUMBER OF POINT SOURCES/SINKS PRESENT IN THE FLOW MODEL =       100

 MAXIMUM STEPSIZE WHICH MEETS STABILITY CRITERION OF THE SINK & SOURCE TERM
 =  122.8    (WHEN MIN. R.F.=1)  AT K=   1, I=   1, J=   1

 MAXIMUM STEPSIZE WHICH MEETS STABILITY CRITERION OF THE DISPERSION TERM
 =  2.084    (WHEN MIN. R.F.=1)  AT K=   1, I=   1, J=  99
     5 CALLS TO GCG PACKAGE FOR TRANSPORT TIME STEP  36 IN FLOW TIME STEP   1 STRESS PERIOD   4
    15 TOTAL ITERATIONS
 
 SOLVING FOR HEAD 


     2 CALLS TO PCG ROUTINE FOR TIME STEP   1 IN STRESS PERIOD    4
    21 TOTAL ITERATIONS

 MAXIMUM HEAD CHANGE FOR EACH ITERATION (1 INDICATES THE FIRST INNER ITERATION):

    HEAD CHANGE    HEAD CHANGE    HEAD CHANGE    HEAD CHANGE    HEAD CHANGE 
   LAYER,ROW,COL  LAYER,ROW,COL  LAYER,ROW,COL  LAYER,ROW,COL  LAYER,ROW,COL
 ---------------------------------------------------------------------------
  1  0.1094E-02  0  0.3562E-03  0  0.1785E-03  0  0.9582E-04  0  0.6185E-04
   ( 50,  1, 56)  ( 48,  1, 64)  ( 46,  1, 70)  ( 42,  1, 73)  ( 39,  1, 77)
  0  0.3798E-04  0 -0.2101E-04  0 -0.1272E-04  0 -0.9017E-05  0 -0.6695E-05
   ( 50,  1, 75)  (  2,  1, 73)  (  3,  1, 59)  (  1,  1, 60)  (  2,  1, 49)
  0 -0.4683E-05  0 -0.3116E-05  0 -0.2041E-05  0 -0.1388E-05  0 -0.1243E-05
   (  1,  1, 53)  (  3,  1, 45)  (  4,  1, 38)  (  1,  1, 35)  (  6,  1,  3)
  0 -0.1332E-05  0 -0.1284E-05  0 -0.1212E-05  0 -0.1002E-05  0 -0.9854E-06
   (  3,  1,  6)  (  1,  1, 10)  ( 10,  1,  1)  (  3,  1,  3)  ( 49,  1, 12)
  1 -0.2147E-06
   ( 44,  1, 13)

 MAXIMUM RESIDUAL FOR EACH ITERATION (1 INDICATES THE FIRST INNER ITERATION):

    RESIDUAL       RESIDUAL       RESIDUAL       RESIDUAL       RESIDUAL    
   LAYER,ROW,COL  LAYER,ROW,COL  LAYER,ROW,COL  LAYER,ROW,COL  LAYER,ROW,COL
 ---------------------------------------------------------------------------
  1   7.840      0   5.030      0  -2.112      0  -1.301      0 -0.9454    
   ( 50,  1, 58)  ( 50,  1, 50)  ( 50,  1, 64)  ( 50,  1, 70)  ( 50,  1, 48)
  0 -0.5408      0 -0.3879      0  0.1771      0  0.1229      0  0.9249E-01
   ( 49,  1, 59)  ( 49,  1, 55)  ( 50,  1, 47)  ( 49,  1, 59)  ( 49,  1, 54)
  0  0.6666E-01  0  0.5296E-01  0 -0.4304E-01  0 -0.3491E-01  0  0.2964E-01
   ( 45,  1, 99)  ( 42,  1, 99)  ( 46,  1, 99)  ( 43,  1, 99)  ( 47,  1, 99)
  0  0.3262E-01  0  0.2908E-01  0 -0.2848E-01  0 -0.2675E-01  0  0.2053E-01
   ( 45,  1, 99)  ( 41,  1, 99)  ( 46,  1, 99)  ( 44,  1, 99)  ( 48,  1, 99)
  1 -0.8059E-02
   ( 40,  1, 99)


 FLOW MODEL IS TRANSIENT
 FLOW MODEL CONTAINS CONSTANT-HEAD CELLS


 MAXIMUM STEPSIZE DURING WHICH ANY PARTICLE CANNOT MOVE MORE THAN ONE CELL
 =  9.357    (WHEN MIN. R.F.=1)  AT K=   1, I=   1, J=  99

 MAXIMUM STEPSIZE WHICH MEETS STABILITY CRITERION OF THE ADVECTION TERM
 (FOR PURE FINITE-DIFFERENCE OPTION, MIXELM=0) 
 =  9.128    (WHEN MIN. R.F.=1)  AT K=   1, I=   1, J=  99


 TOTAL NUMBER OF POINT SOURCES/SINKS PRESENT IN THE FLOW MODEL =       100

 MAXIMUM STEPSIZE WHICH MEETS STABILITY CRITERION OF THE SINK & SOURCE TERM
 =  122.8    (WHEN MIN. R.F.=1)  AT K=   1, I=   1, J=   1

 MAXIMUM STEPSIZE WHICH MEETS STABILITY CRITERION OF THE DISPERSION TERM
 =  2.085    (WHEN MIN. R.F.=1)  AT K=   1, I=   1, J=  99
     5 CALLS TO GCG PACKAGE FOR TRANSPORT TIME STEP  37 IN FLOW TIME STEP   1 STRESS PERIOD   4
    15 TOTAL ITERATIONS
 
 SOLVING FOR HEAD 


     2 CALLS TO PCG ROUTINE FOR TIME STEP   1 IN STRESS PERIOD    4
    20 TOTAL ITERATIONS

 MAXIMUM HEAD CHANGE FOR EACH ITERATION (1 INDICATES THE FIRST INNER ITERATION):

    HEAD CHANGE    HEAD CHANGE    HEAD CHANGE    HEAD CHANGE    HEAD CHANGE 
   LAYER,ROW,COL  LAYER,ROW,COL  LAYER,ROW,COL  LAYER,ROW,COL  LAYER,ROW,COL
 ---------------------------------------------------------------------------
  1  0.1090E-02  0  0.3547E-03  0  0.1781E-03  0  0.9583E-04  0  0.6205E-04
   ( 50,  1, 56)  ( 48,  1, 64)  ( 46,  1, 69)  ( 42,  1, 73)  ( 39,  1, 76)
  0  0.3783E-04  0 -0.2172E-04  0  0.1242E-04  0 -0.8954E-05  0 -0.6909E-05
   ( 50,  1, 74)  (  3,  1, 73)  ( 49,  1, 56)  (  1,  1, 59)  (  2,  1, 49)
  0 -0.4691E-05  0 -0.2892E-05  0 -0.1850E-05  0 -0.1228E-05  0 -0.1037E-05
   (  2,  1, 55)  (  2,  1, 44)  (  4,  1, 38)  (  1,  1, 35)  (  6,  1,  3)
  0 -0.1076E-05  0 -0.1039E-05  0 -0.1018E-05  0 -0.8984E-06  1 -0.2389E-06
   (  4,  1,  7)  (  1,  1, 10)  ( 13,  1,  2)  (  7,  1,  3)  ( 49,  1,  5)

 MAXIMUM RESIDUAL FOR EACH ITERATION (1 INDICATES THE FIRST INNER ITERATION):

    RESIDUAL       RESIDUAL       RESIDUAL       RESIDUAL       RESIDUAL    
   LAYER,ROW,COL  LAYER,ROW,COL  LAYER,ROW,COL  LAYER,ROW,COL  LAYER,ROW,COL
 ---------------------------------------------------------------------------
  1   7.819      0   5.023      0  -2.103      0  -1.295      0 -0.9432    
   ( 50,  1, 58)  ( 50,  1, 50)  ( 50,  1, 64)  ( 50,  1, 70)  ( 50,  1, 48)
  0 -0.5401      0 -0.3889      0  0.1789      0  0.1224      0  0.9231E-01
   ( 49,  1, 59)  ( 49,  1, 55)  ( 50,  1, 47)  ( 49,  1, 59)  ( 49,  1, 54)
  0  0.6488E-01  0  0.5119E-01  0 -0.4018E-01  0 -0.3151E-01  0 -0.2516E-01
   ( 45,  1, 99)  ( 42,  1, 99)  ( 46,  1, 99)  ( 43,  1, 99)  ( 39,  1, 99)
  0  0.2674E-01  0  0.2395E-01  0 -0.2254E-01  0 -0.2262E-01  1 -0.8287E-02
   ( 45,  1, 99)  ( 42,  1, 99)  ( 47,  1, 99)  ( 44,  1, 99)  ( 44,  1, 99)


 FLOW MODEL IS TRANSIENT
 FLOW MODEL CONTAINS CONSTANT-HEAD CELLS


 MAXIMUM STEPSIZE DURING WHICH ANY PARTICLE CANNOT MOVE MORE THAN ONE CELL
 =  9.361    (WHEN MIN. R.F.=1)  AT K=   1, I=   1, J=  99

 MAXIMUM STEPSIZE WHICH MEETS STABILITY CRITERION OF THE ADVECTION TERM
 (FOR PURE FINITE-DIFFERENCE OPTION, MIXELM=0) 
 =  9.132    (WHEN MIN. R.F.=1)  AT K=   1, I=   1, J=  99


 TOTAL NUMBER OF POINT SOURCES/SINKS PRESENT IN THE FLOW MODEL =       100

 MAXIMUM STEPSIZE WHICH MEETS STABILITY CRITERION OF THE SINK & SOURCE TERM
 =  122.8    (WHEN MIN. R.F.=1)  AT K=   1, I=   1, J=   1

 MAXIMUM STEPSIZE WHICH MEETS STABILITY CRITERION OF THE DISPERSION TERM
 =  2.085    (WHEN MIN. R.F.=1)  AT K=   1, I=   1, J=  99
     5 CALLS TO GCG PACKAGE FOR TRANSPORT TIME STEP  38 IN FLOW TIME STEP   1 STRESS PERIOD   4
    15 TOTAL ITERATIONS
 
 SOLVING FOR HEAD 


     2 CALLS TO PCG ROUTINE FOR TIME STEP   1 IN STRESS PERIOD    4
    20 TOTAL ITERATIONS

 MAXIMUM HEAD CHANGE FOR EACH ITERATION (1 INDICATES THE FIRST INNER ITERATION):

    HEAD CHANGE    HEAD CHANGE    HEAD CHANGE    HEAD CHANGE    HEAD CHANGE 
   LAYER,ROW,COL  LAYER,ROW,COL  LAYER,ROW,COL  LAYER,ROW,COL  LAYER,ROW,COL
 ---------------------------------------------------------------------------
  1  0.1086E-02  0  0.3529E-03  0  0.1772E-03  0  0.9528E-04  0  0.6157E-04
   ( 50,  1, 56)  ( 48,  1, 64)  ( 46,  1, 69)  ( 42,  1, 73)  ( 39,  1, 76)
  0  0.3783E-04  0 -0.2104E-04  0 -0.1240E-04  0 -0.8896E-05  0 -0.6692E-05
   ( 50,  1, 74)  (  2,  1, 73)  (  3,  1, 59)  (  1,  1, 60)  (  2,  1, 48)
  0 -0.4735E-05  0 -0.3104E-05  0 -0.1994E-05  0 -0.1333E-05  0 -0.1178E-05
   (  1,  1, 52)  (  2,  1, 43)  (  4,  1, 38)  (  1,  1, 36)  (  6,  1,  3)
  0 -0.1250E-05  0 -0.1213E-05  0 -0.1161E-05  0 -0.9844E-06  1 -0.2724E-06
   (  4,  1,  7)  (  1,  1, 10)  ( 12,  1,  2)  (  3,  1,  3)  ( 41,  1,  7)

 MAXIMUM RESIDUAL FOR EACH ITERATION (1 INDICATES THE FIRST INNER ITERATION):

    RESIDUAL       RESIDUAL       RESIDUAL       RESIDUAL       RESIDUAL    
   LAYER,ROW,COL  LAYER,ROW,COL  LAYER,ROW,COL  LAYER,ROW,COL  LAYER,ROW,COL
 ---------------------------------------------------------------------------
  1   7.792      0   5.017      0  -2.098      0  -1.295      0 -0.9417    
   ( 50,  1, 58)  ( 50,  1, 50)  ( 50,  1, 64)  ( 50,  1, 70)  ( 50,  1, 48)
  0 -0.5383      0 -0.3876      0  0.1791      0  0.1223      0  0.9296E-01
   ( 49,  1, 59)  ( 49,  1, 55)  ( 50,  1, 47)  ( 49,  1, 59)  ( 49,  1, 54)
  0  0.6419E-01  0  0.5200E-01  0 -0.4117E-01  0 -0.3335E-01  0 -0.2788E-01
   ( 45,  1, 99)  ( 42,  1, 99)  ( 46,  1, 99)  ( 43,  1, 99)  ( 39,  1, 99)
  0  0.3058E-01  0  0.2765E-01  0 -0.2626E-01  0 -0.2552E-01  1 -0.9479E-02
   ( 45,  1, 99)  ( 42,  1, 99)  ( 46,  1, 99)  ( 44,  1, 99)  ( 43,  1, 99)


 FLOW MODEL IS TRANSIENT
 FLOW MODEL CONTAINS CONSTANT-HEAD CELLS


 MAXIMUM STEPSIZE DURING WHICH ANY PARTICLE CANNOT MOVE MORE THAN ONE CELL
 =  9.366    (WHEN MIN. R.F.=1)  AT K=   1, I=   1, J=  99

 MAXIMUM STEPSIZE WHICH MEETS STABILITY CRITERION OF THE ADVECTION TERM
 (FOR PURE FINITE-DIFFERENCE OPTION, MIXELM=0) 
 =  9.136    (WHEN MIN. R.F.=1)  AT K=   1, I=   1, J=  99


 TOTAL NUMBER OF POINT SOURCES/SINKS PRESENT IN THE FLOW MODEL =       100

 MAXIMUM STEPSIZE WHICH MEETS STABILITY CRITERION OF THE SINK & SOURCE TERM
 =  122.8    (WHEN MIN. R.F.=1)  AT K=   1, I=   1, J=   1

 MAXIMUM STEPSIZE WHICH MEETS STABILITY CRITERION OF THE DISPERSION TERM
 =  2.086    (WHEN MIN. R.F.=1)  AT K=   1, I=   1, J=  99
     5 CALLS TO GCG PACKAGE FOR TRANSPORT TIME STEP  39 IN FLOW TIME STEP   1 STRESS PERIOD   4
    15 TOTAL ITERATIONS
 
 SOLVING FOR HEAD 


     2 CALLS TO PCG ROUTINE FOR TIME STEP   1 IN STRESS PERIOD    4
    19 TOTAL ITERATIONS

 MAXIMUM HEAD CHANGE FOR EACH ITERATION (1 INDICATES THE FIRST INNER ITERATION):

    HEAD CHANGE    HEAD CHANGE    HEAD CHANGE    HEAD CHANGE    HEAD CHANGE 
   LAYER,ROW,COL  LAYER,ROW,COL  LAYER,ROW,COL  LAYER,ROW,COL  LAYER,ROW,COL
 ---------------------------------------------------------------------------
  1  0.1081E-02  0  0.3511E-03  0  0.1767E-03  0  0.9502E-04  0  0.6147E-04
   ( 50,  1, 56)  ( 48,  1, 64)  ( 46,  1, 69)  ( 42,  1, 73)  ( 39,  1, 76)
  0  0.3785E-04  0 -0.2087E-04  0 -0.1239E-04  0 -0.8846E-05  0 -0.6562E-05
   ( 50,  1, 74)  (  2,  1, 73)  (  3,  1, 59)  (  1,  1, 60)  (  2,  1, 48)
  0 -0.4575E-05  0 -0.2972E-05  0 -0.1872E-05  0 -0.1214E-05  0 -0.1020E-05
   (  1,  1, 52)  (  3,  1, 45)  (  4,  1, 38)  (  1,  1, 35)  (  6,  1,  3)
  0 -0.1057E-05  0 -0.1014E-05  0 -0.9762E-06  1 -0.2652E-06
   (  4,  1,  7)  (  1,  1, 10)  ( 10,  1,  1)  ( 48,  1,  6)

 MAXIMUM RESIDUAL FOR EACH ITERATION (1 INDICATES THE FIRST INNER ITERATION):

    RESIDUAL       RESIDUAL       RESIDUAL       RESIDUAL       RESIDUAL    
   LAYER,ROW,COL  LAYER,ROW,COL  LAYER,ROW,COL  LAYER,ROW,COL  LAYER,ROW,COL
 ---------------------------------------------------------------------------
  1   7.764      0   4.995      0  -2.088      0  -1.290      0 -0.9393    
   ( 50,  1, 58)  ( 50,  1, 50)  ( 50,  1, 64)  ( 50,  1, 70)  ( 50,  1, 47)
  0 -0.5354      0 -0.3850      0  0.1765      0  0.1211      0  0.9103E-01
   ( 49,  1, 59)  ( 49,  1, 55)  ( 50,  1, 47)  ( 49,  1, 59)  ( 49,  1, 54)
  0  0.6255E-01  0  0.5053E-01  0 -0.3929E-01  0 -0.3083E-01  0 -0.2468E-01
   ( 45,  1, 99)  ( 42,  1, 99)  ( 47,  1, 99)  ( 43,  1, 99)  ( 39,  1, 99)
  0  0.2619E-01  0  0.2326E-01  0 -0.2194E-01  1 -0.8077E-02
   ( 45,  1, 99)  ( 42,  1, 99)  ( 46,  1, 99)  ( 46,  1, 99)


 FLOW MODEL IS TRANSIENT
 FLOW MODEL CONTAINS CONSTANT-HEAD CELLS


 MAXIMUM STEPSIZE DURING WHICH ANY PARTICLE CANNOT MOVE MORE THAN ONE CELL
 =  9.370    (WHEN MIN. R.F.=1)  AT K=   1, I=   1, J=  99

 MAXIMUM STEPSIZE WHICH MEETS STABILITY CRITERION OF THE ADVECTION TERM
 (FOR PURE FINITE-DIFFERENCE OPTION, MIXELM=0) 
 =  9.140    (WHEN MIN. R.F.=1)  AT K=   1, I=   1, J=  99


 TOTAL NUMBER OF POINT SOURCES/SINKS PRESENT IN THE FLOW MODEL =       100

 MAXIMUM STEPSIZE WHICH MEETS STABILITY CRITERION OF THE SINK & SOURCE TERM
 =  122.8    (WHEN MIN. R.F.=1)  AT K=   1, I=   1, J=   1

 MAXIMUM STEPSIZE WHICH MEETS STABILITY CRITERION OF THE DISPERSION TERM
 =  2.087    (WHEN MIN. R.F.=1)  AT K=   1, I=   1, J=  99
     5 CALLS TO GCG PACKAGE FOR TRANSPORT TIME STEP  40 IN FLOW TIME STEP   1 STRESS PERIOD   4
    15 TOTAL ITERATIONS
 
 SOLVING FOR HEAD 


     2 CALLS TO PCG ROUTINE FOR TIME STEP   1 IN STRESS PERIOD    4
    15 TOTAL ITERATIONS

 MAXIMUM HEAD CHANGE FOR EACH ITERATION (1 INDICATES THE FIRST INNER ITERATION):

    HEAD CHANGE    HEAD CHANGE    HEAD CHANGE    HEAD CHANGE    HEAD CHANGE 
   LAYER,ROW,COL  LAYER,ROW,COL  LAYER,ROW,COL  LAYER,ROW,COL  LAYER,ROW,COL
 ---------------------------------------------------------------------------
  1  0.1036E-02  0  0.3175E-03  0  0.1454E-03  0  0.7438E-04  0  0.4507E-04
   ( 50,  1, 56)  ( 48,  1, 63)  ( 46,  1, 69)  ( 42,  1, 73)  ( 39,  1, 76)
  0  0.2547E-04  0 -0.1405E-04  0 -0.7805E-05  0 -0.5431E-05  0 -0.3901E-05
   ( 50,  1, 74)  (  3,  1, 73)  (  1,  1, 77)  (  1,  1, 58)  (  2,  1, 48)
  0 -0.2660E-05  0 -0.1680E-05  0 -0.1131E-05  0 -0.7741E-06  1 -0.2902E-06
   (  2,  1, 54)  (  2,  1, 43)  (  2,  1, 47)  (  2,  1, 37)  (  8,  1,  4)

 MAXIMUM RESIDUAL FOR EACH ITERATION (1 INDICATES THE FIRST INNER ITERATION):

    RESIDUAL       RESIDUAL       RESIDUAL       RESIDUAL       RESIDUAL    
   LAYER,ROW,COL  LAYER,ROW,COL  LAYER,ROW,COL  LAYER,ROW,COL  LAYER,ROW,COL
 ---------------------------------------------------------------------------
  1   7.471      0   4.565      0  -1.802      0  -1.040      0 -0.7058    
   ( 50,  1, 58)  ( 50,  1, 50)  ( 50,  1, 63)  ( 50,  1, 69)  ( 50,  1, 47)
  0 -0.3865      0 -0.2630      0  0.1100      0  0.7547E-01  0  0.5269E-01
   ( 49,  1, 58)  ( 49,  1, 54)  ( 50,  1, 47)  ( 49,  1, 58)  ( 49,  1, 54)
  0  0.3536E-01  0  0.2909E-01  0 -0.2441E-01  0 -0.2060E-01  1  0.6791E-02
   ( 45,  1, 99)  ( 42,  1, 99)  ( 46,  1, 99)  ( 43,  1, 99)  (  1,  1, 99)


 FLOW MODEL IS TRANSIENT
 FLOW MODEL CONTAINS CONSTANT-HEAD CELLS


 MAXIMUM STEPSIZE DURING WHICH ANY PARTICLE CANNOT MOVE MORE THAN ONE CELL
 =  9.373    (WHEN MIN. R.F.=1)  AT K=   1, I=   1, J=  99

 MAXIMUM STEPSIZE WHICH MEETS STABILITY CRITERION OF THE ADVECTION TERM
 (FOR PURE FINITE-DIFFERENCE OPTION, MIXELM=0) 
 =  9.143    (WHEN MIN. R.F.=1)  AT K=   1, I=   1, J=  99


 TOTAL NUMBER OF POINT SOURCES/SINKS PRESENT IN THE FLOW MODEL =       100

 MAXIMUM STEPSIZE WHICH MEETS STABILITY CRITERION OF THE SINK & SOURCE TERM
 =  122.8    (WHEN MIN. R.F.=1)  AT K=   1, I=   1, J=   1

 MAXIMUM STEPSIZE WHICH MEETS STABILITY CRITERION OF THE DISPERSION TERM
 =  2.088    (WHEN MIN. R.F.=1)  AT K=   1, I=   1, J=  99
     4 CALLS TO GCG PACKAGE FOR TRANSPORT TIME STEP  41 IN FLOW TIME STEP   1 STRESS PERIOD   4
    10 TOTAL ITERATIONS
  MAXIMUM CONCENTRATION CHANGES FOR EACH ITERATION:
  MAX. CHANGE LAYER,ROW,COL MAX. CHANGE LAYER,ROW,COL MAX. CHANGE LAYER,ROW,COL MAX. CHANGE LAYER,ROW,COL MAX. CHANGE LAYER,ROW,COL
 ------------------------------------------------------------------------------------------------------------------------------------
   0.9092E-01 (  1,  1, 99)  0.5806E-03 (  1,  1, 99)  0.6258E-05 (  1,  1, 99)  0.1192E-06 (  1,  1, 99)  0.7305E-03 (  1,  1, 97)
   0.1442E-04 (  1,  1, 98)  0.1788E-06 (  2,  1, 97)  0.1770E-04 ( 12,  1, 98)  0.2682E-06 (  2,  1, 97)   0.000     (  1,  1,  1)



 >>>>>>>>>>>>>>>>>>>>>>>>>>>>>>>>>>>>>>>>>>>>>>>>>>>>>>>FOR COMPONENT NO. 01<<<<<<<<<<<<<<<<<<<<<<<<<<<<<<<<<<<<<<<<<<<<<<<<<<<<<<<


                                            -------------------------------------------
                                                      TRANSPORT STEP NO.   41
                                            -------------------------------------------

 TOTAL ELAPSED TIME SINCE BEGINNING OF SIMULATION =   1461.000       D
 .....................................................................

                     CUMMULATIVE MASS BUDGETS AT END OF TRANSPORT STEP   41, TIME STEP    1, STRESS PERIOD    4
                     ------------------------------------------------------------------------------------------

                                                             IN                           OUT
                                                      ----------------             ----------------
                               CONSTANT CONCENTRATION:    2124491.                   -1109554.    
                                        CONSTANT HEAD:    0.000000                    0.000000    
                                                WELLS:    0.000000                    0.000000    
                               MASS STOR (FLOW MODEL):    81.43423                   -1510.224    
                                MASS STORAGE (SOLUTE):    669.4332                   -1014177.    
                            ---------------------------------------------------------------------------
                                              [TOTAL]:    2125242.        K          -2125242.        K

                                                          NET (IN - OUT):   0.2500000    
                                                   DISCREPANCY (PERCENT):   0.1176337E-04

 HEAD WILL BE SAVED ON UNIT   99 AT END OF TIME STEP   1, STRESS PERIOD    4
1
  MASS BUDGET FOR ENTIRE MODEL AT END OF TIME STEP  1 IN STRESS PERIOD   4
  ------------------------------------------------------------------------------

     CUMULATIVE MASS      M       RATES FOR THIS TIME STEP      M/T
     ------------------                 ------------------------

           IN:                                      IN:
           ---                                      ---
             STORAGE =       50836.6914               STORAGE =          72.6420
       CONSTANT HEAD =    29406622.0000         CONSTANT HEAD =       12641.2461
               WELLS =    20828010.0000                 WELLS =       14256.0000
                DCDT =        1162.8262                  DCDT =       3.2735E-02

            TOTAL IN =    50286628.0000              TOTAL IN =       26969.9219

          OUT:                                     OUT:
          ----                                     ----
             STORAGE =     3941962.0000               STORAGE =          73.3000
       CONSTANT HEAD =    45491544.0000         CONSTANT HEAD =       26633.9805
               WELLS =           0.0000                 WELLS =           0.0000
                DCDT =      853792.5625                  DCDT =         262.6588

           TOTAL OUT =    50287296.0000             TOTAL OUT =       26969.9395

            IN - OUT =        -668.0000              IN - OUT =      -1.7578E-02

 PERCENT DISCREPANCY =          -0.00     PERCENT DISCREPANCY =          -0.00



0


          TIME SUMMARY AT END OF TRANSPORT STEP   41 IN TIME STEP    1 IN STRESS PERIOD   4
                    SECONDS     MINUTES      HOURS       DAYS        YEARS
                    -----------------------------------------------------------
  TRANS STEP LENGTH 3.35264E+05  5587.7      93.129      3.8804     1.06239E-02
   TIME STEP LENGTH 3.16224E+07 5.27040E+05  8784.0      366.00      1.0021    
 STRESS PERIOD TIME 3.16224E+07 5.27039E+05  8784.0      366.00      1.0021    
         TOTAL TIME 1.26230E+08 2.10384E+06  35064.      1461.0      4.0000    
1


                                   ++++++++++++++++++++++++++++++++++++++++++++++++++++++++++++++
                                                       STRESS PERIOD NO.  005
                                   ++++++++++++++++++++++++++++++++++++++++++++++++++++++++++++++


 LENGTH OF CURRENT STRESS PERIOD =   365.0000    
 NUMBER OF TIME STEPS FOR CURRENT STRESS PERIOD =    1
 TIME STEP MULTIPLIER USED IN FLOW SOLUTION =   1.000000    
 USER-SPECIFIED TRANSPORT STEPSIZE =   0.000000       D
 MAXIMUM NUMBER OF TRANSPORT STEPS ALLOWED  IN ONE FLOW TIME STEP =     50000
 MULTIPLIER FOR SUCCESSIVE TRANSPORT STEPS  [USED IN IMPLICIT SCHEMES] =     1.000
 MAXIMUM TRANSPORT STEP SIZE  [USED IN IMPLICIT SCHEMES] =   0.000000       D
1
                            STRESS PERIOD NO.    5, LENGTH =   365.0000    
                            -----------------------------------------------

                              NUMBER OF TIME STEPS =     1

                               MULTIPLIER FOR DELT =     1.000

                            INITIAL TIME STEP SIZE =   365.0000    

 NO. OF POINT SINKS/SOURCES OF SPECIFIED CONCONCENTRATIONS =    0 IN STRESS PERIOD  5

 WELL NO.  LAYER   ROW   COL   STRESS RATE         NOPRINT         
 ------------------------------------------------------------------

     50 WELLS


                                          ================================================
                                                         FROM TIME =   1461.0     TO    1826.0    

 
 SOLVING FOR HEAD 


     2 CALLS TO PCG ROUTINE FOR TIME STEP   1 IN STRESS PERIOD    5
    15 TOTAL ITERATIONS

 MAXIMUM HEAD CHANGE FOR EACH ITERATION (1 INDICATES THE FIRST INNER ITERATION):

    HEAD CHANGE    HEAD CHANGE    HEAD CHANGE    HEAD CHANGE    HEAD CHANGE 
   LAYER,ROW,COL  LAYER,ROW,COL  LAYER,ROW,COL  LAYER,ROW,COL  LAYER,ROW,COL
 ---------------------------------------------------------------------------
  1  0.5155E-03  0  0.1850E-03  0  0.1037E-03  0  0.5576E-04  0 -0.3934E-04
   ( 50,  1, 56)  ( 48,  1, 64)  ( 46,  1, 69)  ( 43,  1, 74)  (  3,  1, 78)
  0 -0.2819E-04  0 -0.1359E-04  0 -0.8829E-05  0 -0.5596E-05  0 -0.3166E-05
   (  5,  1, 73)  (  6,  1, 66)  (  6,  1, 57)  (  1,  1, 62)  (  1,  1, 55)
  0 -0.2969E-05  0 -0.1993E-05  0 -0.1260E-05  0 -0.8250E-06  1 -0.2651E-06
   (  1,  1, 49)  (  2,  1, 41)  (  3,  1, 34)  (  3,  1, 25)  (  5,  1, 20)

 MAXIMUM RESIDUAL FOR EACH ITERATION (1 INDICATES THE FIRST INNER ITERATION):

    RESIDUAL       RESIDUAL       RESIDUAL       RESIDUAL       RESIDUAL    
   LAYER,ROW,COL  LAYER,ROW,COL  LAYER,ROW,COL  LAYER,ROW,COL  LAYER,ROW,COL
 ---------------------------------------------------------------------------
  1   6.438      0   5.425      0   3.874      0   2.536      0   1.917    
   (  2,  1, 99)  (  1,  1, 98)  (  1,  1, 99)  (  2,  1, 97)  (  2,  1, 98)
  0   1.073      0 -0.6196      0 -0.3244      0  0.2023      0 -0.1648    
   (  2,  1, 99)  (  2,  1, 97)  (  2,  1, 98)  (  3,  1, 98)  (  3,  1, 97)
  0 -0.7876E-01  0  0.6211E-01  0  0.4168E-01  0 -0.2167E-01  1  0.1029E-01
   (  3,  1, 98)  (  3,  1, 96)  (  3,  1, 97)  (  4,  1, 97)  (  2,  1, 99)


 FLOW MODEL IS TRANSIENT
 FLOW MODEL CONTAINS CONSTANT-HEAD CELLS


 MAXIMUM STEPSIZE DURING WHICH ANY PARTICLE CANNOT MOVE MORE THAN ONE CELL
 =  9.349    (WHEN MIN. R.F.=1)  AT K=   1, I=   1, J=  99

 MAXIMUM STEPSIZE WHICH MEETS STABILITY CRITERION OF THE ADVECTION TERM
 (FOR PURE FINITE-DIFFERENCE OPTION, MIXELM=0) 
 =  9.111    (WHEN MIN. R.F.=1)  AT K=   1, I=   1, J=  99


 TOTAL NUMBER OF POINT SOURCES/SINKS PRESENT IN THE FLOW MODEL =       100

 MAXIMUM STEPSIZE WHICH MEETS STABILITY CRITERION OF THE SINK & SOURCE TERM
 =  122.8    (WHEN MIN. R.F.=1)  AT K=   1, I=   1, J=   1

 MAXIMUM STEPSIZE WHICH MEETS STABILITY CRITERION OF THE DISPERSION TERM
 =  2.081    (WHEN MIN. R.F.=1)  AT K=   1, I=   1, J=  99


     5 CALLS TO GCG PACKAGE FOR TRANSPORT TIME STEP   1 IN FLOW TIME STEP   1 STRESS PERIOD   5
    15 TOTAL ITERATIONS

 OUTPUT CONTROL FOR STRESS PERIOD    5   TIME STEP   1
    SAVE HEAD FOR ALL LAYERS
    SAVE BUDGET FOR ALL LAYERS
    SAVE BUDGET
 
 SOLVING FOR HEAD 


     2 CALLS TO PCG ROUTINE FOR TIME STEP   1 IN STRESS PERIOD    5
    20 TOTAL ITERATIONS

 MAXIMUM HEAD CHANGE FOR EACH ITERATION (1 INDICATES THE FIRST INNER ITERATION):

    HEAD CHANGE    HEAD CHANGE    HEAD CHANGE    HEAD CHANGE    HEAD CHANGE 
   LAYER,ROW,COL  LAYER,ROW,COL  LAYER,ROW,COL  LAYER,ROW,COL  LAYER,ROW,COL
 ---------------------------------------------------------------------------
  1  0.1043E-02  0  0.3366E-03  0  0.1719E-03  0  0.9221E-04  0  0.5903E-04
   ( 50,  1, 55)  ( 48,  1, 63)  ( 46,  1, 69)  ( 42,  1, 72)  ( 39,  1, 76)
  0  0.3541E-04  0 -0.2403E-04  0 -0.1370E-04  0 -0.9380E-05  0 -0.7096E-05
   ( 50,  1, 74)  (  3,  1, 73)  (  3,  1, 64)  (  5,  1, 61)  (  3,  1, 49)
  0 -0.4794E-05  0 -0.2972E-05  0 -0.2110E-05  0 -0.1447E-05  0 -0.1196E-05
   (  2,  1, 54)  (  9,  1, 41)  (  1,  1, 44)  (  2,  1, 36)  (  2,  1, 28)
  0 -0.1193E-05  0 -0.1233E-05  0 -0.1077E-05  0 -0.9367E-06  1 -0.2834E-06
   (  4,  1,  7)  (  2,  1, 11)  ( 13,  1,  2)  (  8,  1,  3)  ( 41,  1,  7)

 MAXIMUM RESIDUAL FOR EACH ITERATION (1 INDICATES THE FIRST INNER ITERATION):

    RESIDUAL       RESIDUAL       RESIDUAL       RESIDUAL       RESIDUAL    
   LAYER,ROW,COL  LAYER,ROW,COL  LAYER,ROW,COL  LAYER,ROW,COL  LAYER,ROW,COL
 ---------------------------------------------------------------------------
  1   7.387      0   4.748      0  -2.004      0  -1.270      0 -0.9126    
   ( 50,  1, 58)  ( 50,  1, 50)  ( 50,  1, 63)  ( 50,  1, 69)  ( 50,  1, 47)
  0 -0.4959      0 -0.3795      0  0.1817      0  0.1171      0  0.9039E-01
   ( 49,  1, 58)  ( 49,  1, 54)  ( 50,  1, 47)  ( 49,  1, 59)  ( 49,  1, 54)
  0 -0.6192E-01  0  0.5017E-01  0 -0.3950E-01  0 -0.3239E-01  0  0.3075E-01
   (  1,  1, 99)  ( 42,  1, 99)  ( 47,  1, 99)  ( 43,  1, 99)  (  1,  1, 99)
  0  0.3121E-01  0  0.2842E-01  0 -0.2607E-01  0 -0.2567E-01  1  0.1015E-01
   ( 45,  1, 99)  ( 42,  1, 99)  ( 47,  1, 99)  ( 44,  1, 99)  (  2,  1, 99)


 FLOW MODEL IS TRANSIENT
 FLOW MODEL CONTAINS CONSTANT-HEAD CELLS


 MAXIMUM STEPSIZE DURING WHICH ANY PARTICLE CANNOT MOVE MORE THAN ONE CELL
 =  9.370    (WHEN MIN. R.F.=1)  AT K=   1, I=   1, J=  99

 MAXIMUM STEPSIZE WHICH MEETS STABILITY CRITERION OF THE ADVECTION TERM
 (FOR PURE FINITE-DIFFERENCE OPTION, MIXELM=0) 
 =  9.138    (WHEN MIN. R.F.=1)  AT K=   1, I=   1, J=  99


 TOTAL NUMBER OF POINT SOURCES/SINKS PRESENT IN THE FLOW MODEL =       100

 MAXIMUM STEPSIZE WHICH MEETS STABILITY CRITERION OF THE SINK & SOURCE TERM
 =  122.8    (WHEN MIN. R.F.=1)  AT K=   1, I=   1, J=   1

 MAXIMUM STEPSIZE WHICH MEETS STABILITY CRITERION OF THE DISPERSION TERM
 =  2.087    (WHEN MIN. R.F.=1)  AT K=   1, I=   1, J=  99
     5 CALLS TO GCG PACKAGE FOR TRANSPORT TIME STEP   2 IN FLOW TIME STEP   1 STRESS PERIOD   5
    15 TOTAL ITERATIONS
 
 SOLVING FOR HEAD 


     2 CALLS TO PCG ROUTINE FOR TIME STEP   1 IN STRESS PERIOD    5
    20 TOTAL ITERATIONS

 MAXIMUM HEAD CHANGE FOR EACH ITERATION (1 INDICATES THE FIRST INNER ITERATION):

    HEAD CHANGE    HEAD CHANGE    HEAD CHANGE    HEAD CHANGE    HEAD CHANGE 
   LAYER,ROW,COL  LAYER,ROW,COL  LAYER,ROW,COL  LAYER,ROW,COL  LAYER,ROW,COL
 ---------------------------------------------------------------------------
  1  0.1059E-02  0  0.3424E-03  0  0.1737E-03  0  0.9315E-04  0  0.6068E-04
   ( 50,  1, 55)  ( 48,  1, 63)  ( 46,  1, 69)  ( 42,  1, 72)  ( 39,  1, 76)
  0  0.3689E-04  0 -0.2258E-04  0 -0.1224E-04  0 -0.9044E-05  0 -0.6705E-05
   ( 50,  1, 74)  (  2,  1, 73)  (  2,  1, 78)  (  1,  1, 59)  (  2,  1, 48)
  0 -0.4485E-05  0 -0.2915E-05  0 -0.1929E-05  0 -0.1278E-05  0 -0.1030E-05
   (  1,  1, 52)  (  3,  1, 44)  (  1,  1, 45)  (  1,  1, 35)  (  2,  1, 28)
  0 -0.1088E-05  0 -0.1101E-05  0 -0.1021E-05  0 -0.9185E-06  1 -0.2531E-06
   (  5,  1,  7)  (  1,  1, 10)  ( 13,  1,  2)  (  4,  1,  3)  ( 41,  1,  7)

 MAXIMUM RESIDUAL FOR EACH ITERATION (1 INDICATES THE FIRST INNER ITERATION):

    RESIDUAL       RESIDUAL       RESIDUAL       RESIDUAL       RESIDUAL    
   LAYER,ROW,COL  LAYER,ROW,COL  LAYER,ROW,COL  LAYER,ROW,COL  LAYER,ROW,COL
 ---------------------------------------------------------------------------
  1   7.581      0   4.836      0  -2.046      0  -1.282      0 -0.9352    
   ( 50,  1, 57)  ( 50,  1, 49)  ( 50,  1, 63)  ( 50,  1, 69)  ( 50,  1, 47)
  0 -0.5272      0 -0.3805      0  0.1791      0  0.1198      0  0.9077E-01
   ( 49,  1, 58)  ( 49,  1, 54)  ( 50,  1, 47)  ( 49,  1, 58)  ( 49,  1, 54)
  0  0.5859E-01  0  0.4943E-01  0 -0.3826E-01  0 -0.3031E-01  0 -0.2520E-01
   ( 45,  1, 99)  ( 42,  1, 99)  ( 47,  1, 99)  ( 44,  1, 99)  ( 40,  1, 99)
  0  0.2687E-01  0  0.2473E-01  0 -0.2266E-01  0 -0.2291E-01  1 -0.8170E-02
   ( 45,  1, 99)  ( 42,  1, 99)  ( 47,  1, 99)  ( 44,  1, 99)  ( 44,  1, 99)


 FLOW MODEL IS TRANSIENT
 FLOW MODEL CONTAINS CONSTANT-HEAD CELLS


 MAXIMUM STEPSIZE DURING WHICH ANY PARTICLE CANNOT MOVE MORE THAN ONE CELL
 =  9.377    (WHEN MIN. R.F.=1)  AT K=   1, I=   1, J=  99

 MAXIMUM STEPSIZE WHICH MEETS STABILITY CRITERION OF THE ADVECTION TERM
 (FOR PURE FINITE-DIFFERENCE OPTION, MIXELM=0) 
 =  9.146    (WHEN MIN. R.F.=1)  AT K=   1, I=   1, J=  99


 TOTAL NUMBER OF POINT SOURCES/SINKS PRESENT IN THE FLOW MODEL =       100

 MAXIMUM STEPSIZE WHICH MEETS STABILITY CRITERION OF THE SINK & SOURCE TERM
 =  122.8    (WHEN MIN. R.F.=1)  AT K=   1, I=   1, J=   1

 MAXIMUM STEPSIZE WHICH MEETS STABILITY CRITERION OF THE DISPERSION TERM
 =  2.089    (WHEN MIN. R.F.=1)  AT K=   1, I=   1, J=  99
     5 CALLS TO GCG PACKAGE FOR TRANSPORT TIME STEP   3 IN FLOW TIME STEP   1 STRESS PERIOD   5
    15 TOTAL ITERATIONS
 
 SOLVING FOR HEAD 


     2 CALLS TO PCG ROUTINE FOR TIME STEP   1 IN STRESS PERIOD    5
    22 TOTAL ITERATIONS

 MAXIMUM HEAD CHANGE FOR EACH ITERATION (1 INDICATES THE FIRST INNER ITERATION):

    HEAD CHANGE    HEAD CHANGE    HEAD CHANGE    HEAD CHANGE    HEAD CHANGE 
   LAYER,ROW,COL  LAYER,ROW,COL  LAYER,ROW,COL  LAYER,ROW,COL  LAYER,ROW,COL
 ---------------------------------------------------------------------------
  1  0.1060E-02  0  0.3430E-03  0  0.1737E-03  0  0.9353E-04  0  0.6090E-04
   ( 50,  1, 55)  ( 48,  1, 63)  ( 46,  1, 69)  ( 42,  1, 72)  ( 39,  1, 76)
  0  0.3710E-04  0 -0.2204E-04  0 -0.1214E-04  0 -0.8800E-05  0 -0.6793E-05
   ( 50,  1, 74)  (  3,  1, 73)  (  1,  1, 77)  (  1,  1, 58)  (  2,  1, 47)
  0 -0.4634E-05  0 -0.3022E-05  0 -0.1997E-05  0 -0.1398E-05  0 -0.1227E-05
   (  1,  1, 52)  (  3,  1, 44)  (  1,  1, 45)  (  1,  1, 34)  (  6,  1,  3)
  0 -0.1359E-05  0 -0.1360E-05  0 -0.1225E-05  0 -0.1002E-05  0 -0.1008E-05
   (  4,  1,  6)  (  1,  1, 10)  ( 13,  1,  2)  (  4,  1,  3)  ( 49,  1, 12)
  0 -0.8551E-06  1 -0.1343E-06
   ( 44,  1, 13)  ( 45,  1,  2)

 MAXIMUM RESIDUAL FOR EACH ITERATION (1 INDICATES THE FIRST INNER ITERATION):

    RESIDUAL       RESIDUAL       RESIDUAL       RESIDUAL       RESIDUAL    
   LAYER,ROW,COL  LAYER,ROW,COL  LAYER,ROW,COL  LAYER,ROW,COL  LAYER,ROW,COL
 ---------------------------------------------------------------------------
  1   7.617      0   4.881      0  -2.057      0  -1.283      0 -0.9379    
   ( 50,  1, 57)  ( 50,  1, 49)  ( 50,  1, 63)  ( 50,  1, 69)  ( 50,  1, 47)
  0 -0.5301      0 -0.3815      0  0.1769      0  0.1207      0  0.9092E-01
   ( 49,  1, 58)  ( 49,  1, 54)  ( 50,  1, 46)  ( 49,  1, 58)  ( 49,  1, 53)
  0  0.5892E-01  0  0.5009E-01  0 -0.3965E-01  0 -0.3264E-01  0 -0.2811E-01
   ( 45,  1, 99)  ( 42,  1, 99)  ( 47,  1, 99)  ( 43,  1, 99)  ( 40,  1, 99)
  0  0.3152E-01  0  0.2914E-01  0 -0.2654E-01  0 -0.2608E-01  0 -0.2043E-01
   ( 45,  1, 99)  ( 42,  1, 99)  ( 47,  1, 99)  ( 44,  1, 99)  ( 41,  1, 99)
  0  0.1796E-01  1  0.6393E-02
   ( 46,  1, 99)  ( 46,  1, 99)


 FLOW MODEL IS TRANSIENT
 FLOW MODEL CONTAINS CONSTANT-HEAD CELLS


 MAXIMUM STEPSIZE DURING WHICH ANY PARTICLE CANNOT MOVE MORE THAN ONE CELL
 =  9.383    (WHEN MIN. R.F.=1)  AT K=   1, I=   1, J=  99

 MAXIMUM STEPSIZE WHICH MEETS STABILITY CRITERION OF THE ADVECTION TERM
 (FOR PURE FINITE-DIFFERENCE OPTION, MIXELM=0) 
 =  9.152    (WHEN MIN. R.F.=1)  AT K=   1, I=   1, J=  99


 TOTAL NUMBER OF POINT SOURCES/SINKS PRESENT IN THE FLOW MODEL =       100

 MAXIMUM STEPSIZE WHICH MEETS STABILITY CRITERION OF THE SINK & SOURCE TERM
 =  122.8    (WHEN MIN. R.F.=1)  AT K=   1, I=   1, J=   1

 MAXIMUM STEPSIZE WHICH MEETS STABILITY CRITERION OF THE DISPERSION TERM
 =  2.090    (WHEN MIN. R.F.=1)  AT K=   1, I=   1, J=  99
     5 CALLS TO GCG PACKAGE FOR TRANSPORT TIME STEP   4 IN FLOW TIME STEP   1 STRESS PERIOD   5
    15 TOTAL ITERATIONS
 
 SOLVING FOR HEAD 


     2 CALLS TO PCG ROUTINE FOR TIME STEP   1 IN STRESS PERIOD    5
    20 TOTAL ITERATIONS

 MAXIMUM HEAD CHANGE FOR EACH ITERATION (1 INDICATES THE FIRST INNER ITERATION):

    HEAD CHANGE    HEAD CHANGE    HEAD CHANGE    HEAD CHANGE    HEAD CHANGE 
   LAYER,ROW,COL  LAYER,ROW,COL  LAYER,ROW,COL  LAYER,ROW,COL  LAYER,ROW,COL
 ---------------------------------------------------------------------------
  1  0.1058E-02  0  0.3419E-03  0  0.1731E-03  0  0.9359E-04  0  0.6105E-04
   ( 50,  1, 55)  ( 48,  1, 63)  ( 46,  1, 68)  ( 42,  1, 72)  ( 39,  1, 76)
  0  0.3711E-04  0 -0.2185E-04  0 -0.1213E-04  0 -0.8780E-05  0 -0.6637E-05
   ( 50,  1, 73)  (  3,  1, 73)  (  1,  1, 77)  (  1,  1, 58)  (  2,  1, 47)
  0 -0.4528E-05  0 -0.2930E-05  0 -0.1867E-05  0 -0.1258E-05  0 -0.1073E-05
   (  2,  1, 53)  (  3,  1, 44)  (  1,  1, 44)  (  1,  1, 34)  (  7,  1,  3)
  0 -0.1152E-05  0 -0.1144E-05  0 -0.1058E-05  0 -0.9239E-06  1 -0.2525E-06
   (  4,  1,  6)  (  1,  1, 10)  ( 13,  1,  2)  (  4,  1,  3)  ( 41,  1,  7)

 MAXIMUM RESIDUAL FOR EACH ITERATION (1 INDICATES THE FIRST INNER ITERATION):

    RESIDUAL       RESIDUAL       RESIDUAL       RESIDUAL       RESIDUAL    
   LAYER,ROW,COL  LAYER,ROW,COL  LAYER,ROW,COL  LAYER,ROW,COL  LAYER,ROW,COL
 ---------------------------------------------------------------------------
  1   7.605      0   4.887      0  -2.054      0  -1.279      0 -0.9354    
   ( 50,  1, 57)  ( 50,  1, 49)  ( 50,  1, 63)  ( 50,  1, 69)  ( 50,  1, 47)
  0 -0.5301      0 -0.3816      0  0.1763      0  0.1199      0  0.8990E-01
   ( 49,  1, 58)  ( 49,  1, 54)  ( 50,  1, 46)  ( 49,  1, 58)  ( 49,  1, 53)
  0  0.5739E-01  0  0.4877E-01  0 -0.3791E-01  0 -0.3005E-01  0 -0.2511E-01
   ( 45,  1, 99)  ( 42,  1, 99)  ( 47,  1, 99)  ( 44,  1, 99)  ( 40,  1, 99)
  0  0.2686E-01  0  0.2483E-01  0 -0.2266E-01  0 -0.2289E-01  1 -0.8201E-02
   ( 45,  1, 99)  ( 42,  1, 99)  ( 47,  1, 99)  ( 44,  1, 99)  ( 44,  1, 99)


 FLOW MODEL IS TRANSIENT
 FLOW MODEL CONTAINS CONSTANT-HEAD CELLS


 MAXIMUM STEPSIZE DURING WHICH ANY PARTICLE CANNOT MOVE MORE THAN ONE CELL
 =  9.388    (WHEN MIN. R.F.=1)  AT K=   1, I=   1, J=  99

 MAXIMUM STEPSIZE WHICH MEETS STABILITY CRITERION OF THE ADVECTION TERM
 (FOR PURE FINITE-DIFFERENCE OPTION, MIXELM=0) 
 =  9.157    (WHEN MIN. R.F.=1)  AT K=   1, I=   1, J=  99


 TOTAL NUMBER OF POINT SOURCES/SINKS PRESENT IN THE FLOW MODEL =       100

 MAXIMUM STEPSIZE WHICH MEETS STABILITY CRITERION OF THE SINK & SOURCE TERM
 =  122.8    (WHEN MIN. R.F.=1)  AT K=   1, I=   1, J=   1

 MAXIMUM STEPSIZE WHICH MEETS STABILITY CRITERION OF THE DISPERSION TERM
 =  2.091    (WHEN MIN. R.F.=1)  AT K=   1, I=   1, J=  99
     5 CALLS TO GCG PACKAGE FOR TRANSPORT TIME STEP   5 IN FLOW TIME STEP   1 STRESS PERIOD   5
    15 TOTAL ITERATIONS
 
 SOLVING FOR HEAD 


     2 CALLS TO PCG ROUTINE FOR TIME STEP   1 IN STRESS PERIOD    5
    20 TOTAL ITERATIONS

 MAXIMUM HEAD CHANGE FOR EACH ITERATION (1 INDICATES THE FIRST INNER ITERATION):

    HEAD CHANGE    HEAD CHANGE    HEAD CHANGE    HEAD CHANGE    HEAD CHANGE 
   LAYER,ROW,COL  LAYER,ROW,COL  LAYER,ROW,COL  LAYER,ROW,COL  LAYER,ROW,COL
 ---------------------------------------------------------------------------
  1  0.1054E-02  0  0.3406E-03  0  0.1727E-03  0  0.9342E-04  0  0.6088E-04
   ( 50,  1, 55)  ( 48,  1, 63)  ( 46,  1, 68)  ( 42,  1, 72)  ( 39,  1, 75)
  0  0.3711E-04  0 -0.2124E-04  0  0.1205E-04  0 -0.8665E-05  0 -0.6562E-05
   ( 50,  1, 73)  (  3,  1, 73)  ( 49,  1, 55)  (  1,  1, 59)  (  2,  1, 47)
  0 -0.4557E-05  0 -0.2981E-05  0 -0.1881E-05  0 -0.1261E-05  0 -0.1092E-05
   (  1,  1, 51)  (  3,  1, 44)  (  1,  1, 45)  (  1,  1, 34)  (  7,  1,  3)
  0 -0.1180E-05  0 -0.1170E-05  0 -0.1072E-05  0 -0.9376E-06  1 -0.2597E-06
   (  4,  1,  6)  (  1,  1, 10)  ( 13,  1,  2)  (  4,  1,  3)  ( 40,  1,  6)

 MAXIMUM RESIDUAL FOR EACH ITERATION (1 INDICATES THE FIRST INNER ITERATION):

    RESIDUAL       RESIDUAL       RESIDUAL       RESIDUAL       RESIDUAL    
   LAYER,ROW,COL  LAYER,ROW,COL  LAYER,ROW,COL  LAYER,ROW,COL  LAYER,ROW,COL
 ---------------------------------------------------------------------------
  1   7.583      0   4.881      0  -2.049      0  -1.275      0 -0.9330    
   ( 50,  1, 57)  ( 50,  1, 49)  ( 50,  1, 63)  ( 50,  1, 69)  ( 50,  1, 47)
  0 -0.5282      0 -0.3805      0  0.1755      0  0.1195      0  0.8991E-01
   ( 49,  1, 58)  ( 49,  1, 54)  ( 50,  1, 46)  ( 49,  1, 58)  ( 49,  1, 53)
  0  0.5650E-01  0  0.4847E-01  0 -0.3773E-01  0 -0.3010E-01  0 -0.2531E-01
   ( 46,  1, 99)  ( 42,  1, 99)  ( 47,  1, 99)  ( 43,  1, 99)  ( 40,  1, 99)
  0  0.2737E-01  0  0.2524E-01  0 -0.2298E-01  0 -0.2316E-01  1 -0.8405E-02
   ( 45,  1, 99)  ( 42,  1, 99)  ( 47,  1, 99)  ( 44,  1, 99)  ( 44,  1, 99)


 FLOW MODEL IS TRANSIENT
 FLOW MODEL CONTAINS CONSTANT-HEAD CELLS


 MAXIMUM STEPSIZE DURING WHICH ANY PARTICLE CANNOT MOVE MORE THAN ONE CELL
 =  9.393    (WHEN MIN. R.F.=1)  AT K=   1, I=   1, J=  99

 MAXIMUM STEPSIZE WHICH MEETS STABILITY CRITERION OF THE ADVECTION TERM
 (FOR PURE FINITE-DIFFERENCE OPTION, MIXELM=0) 
 =  9.162    (WHEN MIN. R.F.=1)  AT K=   1, I=   1, J=  99


 TOTAL NUMBER OF POINT SOURCES/SINKS PRESENT IN THE FLOW MODEL =       100

 MAXIMUM STEPSIZE WHICH MEETS STABILITY CRITERION OF THE SINK & SOURCE TERM
 =  122.8    (WHEN MIN. R.F.=1)  AT K=   1, I=   1, J=   1

 MAXIMUM STEPSIZE WHICH MEETS STABILITY CRITERION OF THE DISPERSION TERM
 =  2.092    (WHEN MIN. R.F.=1)  AT K=   1, I=   1, J=  99
     5 CALLS TO GCG PACKAGE FOR TRANSPORT TIME STEP   6 IN FLOW TIME STEP   1 STRESS PERIOD   5
    15 TOTAL ITERATIONS
 
 SOLVING FOR HEAD 


     2 CALLS TO PCG ROUTINE FOR TIME STEP   1 IN STRESS PERIOD    5
    20 TOTAL ITERATIONS

 MAXIMUM HEAD CHANGE FOR EACH ITERATION (1 INDICATES THE FIRST INNER ITERATION):

    HEAD CHANGE    HEAD CHANGE    HEAD CHANGE    HEAD CHANGE    HEAD CHANGE 
   LAYER,ROW,COL  LAYER,ROW,COL  LAYER,ROW,COL  LAYER,ROW,COL  LAYER,ROW,COL
 ---------------------------------------------------------------------------
  1  0.1050E-02  0  0.3391E-03  0  0.1722E-03  0  0.9312E-04  0  0.6082E-04
   ( 50,  1, 55)  ( 48,  1, 63)  ( 46,  1, 68)  ( 42,  1, 72)  ( 39,  1, 75)
  0  0.3708E-04  0 -0.2100E-04  0  0.1201E-04  0 -0.8646E-05  0 -0.6515E-05
   ( 50,  1, 73)  (  2,  1, 72)  ( 49,  1, 55)  (  1,  1, 59)  (  2,  1, 47)
  0 -0.4559E-05  0 -0.2996E-05  0 -0.1890E-05  0 -0.1261E-05  0 -0.1108E-05
   (  1,  1, 51)  (  3,  1, 44)  (  4,  1, 37)  (  1,  1, 34)  (  7,  1,  3)
  0 -0.1201E-05  0 -0.1185E-05  0 -0.1085E-05  0 -0.9426E-06  1 -0.2604E-06
   (  4,  1,  6)  (  1,  1, 10)  ( 13,  1,  2)  (  3,  1,  3)  ( 40,  1,  6)

 MAXIMUM RESIDUAL FOR EACH ITERATION (1 INDICATES THE FIRST INNER ITERATION):

    RESIDUAL       RESIDUAL       RESIDUAL       RESIDUAL       RESIDUAL    
   LAYER,ROW,COL  LAYER,ROW,COL  LAYER,ROW,COL  LAYER,ROW,COL  LAYER,ROW,COL
 ---------------------------------------------------------------------------
  1   7.558      0   4.867      0  -2.039      0  -1.272      0 -0.9319    
   ( 50,  1, 57)  ( 50,  1, 49)  ( 50,  1, 63)  ( 50,  1, 69)  ( 50,  1, 46)
  0 -0.5264      0 -0.3787      0  0.1746      0  0.1190      0  0.8952E-01
   ( 49,  1, 58)  ( 49,  1, 54)  ( 50,  1, 46)  ( 49,  1, 58)  ( 49,  1, 53)
  0  0.5577E-01  0  0.4811E-01  0 -0.3747E-01  0 -0.3003E-01  0 -0.2541E-01
   ( 46,  1, 99)  ( 42,  1, 99)  ( 47,  1, 99)  ( 44,  1, 99)  ( 40,  1, 99)
  0  0.2754E-01  0  0.2546E-01  0 -0.2307E-01  0 -0.2326E-01  1 -0.8466E-02
   ( 45,  1, 99)  ( 42,  1, 99)  ( 47,  1, 99)  ( 44,  1, 99)  ( 44,  1, 99)


 FLOW MODEL IS TRANSIENT
 FLOW MODEL CONTAINS CONSTANT-HEAD CELLS


 MAXIMUM STEPSIZE DURING WHICH ANY PARTICLE CANNOT MOVE MORE THAN ONE CELL
 =  9.398    (WHEN MIN. R.F.=1)  AT K=   1, I=   1, J=  99

 MAXIMUM STEPSIZE WHICH MEETS STABILITY CRITERION OF THE ADVECTION TERM
 (FOR PURE FINITE-DIFFERENCE OPTION, MIXELM=0) 
 =  9.167    (WHEN MIN. R.F.=1)  AT K=   1, I=   1, J=  99


 TOTAL NUMBER OF POINT SOURCES/SINKS PRESENT IN THE FLOW MODEL =       100

 MAXIMUM STEPSIZE WHICH MEETS STABILITY CRITERION OF THE SINK & SOURCE TERM
 =  122.8    (WHEN MIN. R.F.=1)  AT K=   1, I=   1, J=   1

 MAXIMUM STEPSIZE WHICH MEETS STABILITY CRITERION OF THE DISPERSION TERM
 =  2.093    (WHEN MIN. R.F.=1)  AT K=   1, I=   1, J=  99
     5 CALLS TO GCG PACKAGE FOR TRANSPORT TIME STEP   7 IN FLOW TIME STEP   1 STRESS PERIOD   5
    15 TOTAL ITERATIONS
 
 SOLVING FOR HEAD 


     2 CALLS TO PCG ROUTINE FOR TIME STEP   1 IN STRESS PERIOD    5
    20 TOTAL ITERATIONS

 MAXIMUM HEAD CHANGE FOR EACH ITERATION (1 INDICATES THE FIRST INNER ITERATION):

    HEAD CHANGE    HEAD CHANGE    HEAD CHANGE    HEAD CHANGE    HEAD CHANGE 
   LAYER,ROW,COL  LAYER,ROW,COL  LAYER,ROW,COL  LAYER,ROW,COL  LAYER,ROW,COL
 ---------------------------------------------------------------------------
  1  0.1046E-02  0  0.3374E-03  0  0.1716E-03  0  0.9300E-04  0  0.6082E-04
   ( 50,  1, 55)  ( 48,  1, 63)  ( 46,  1, 68)  ( 42,  1, 72)  ( 39,  1, 75)
  0  0.3699E-04  0 -0.2082E-04  0  0.1197E-04  0 -0.8637E-05  0 -0.6473E-05
   ( 50,  1, 73)  (  2,  1, 72)  ( 49,  1, 54)  (  1,  1, 59)  (  2,  1, 47)
  0 -0.4544E-05  0 -0.2999E-05  0 -0.1896E-05  0 -0.1260E-05  0 -0.1117E-05
   (  1,  1, 51)  (  2,  1, 42)  (  4,  1, 37)  (  1,  1, 34)  (  7,  1,  3)
  0 -0.1218E-05  0 -0.1199E-05  0 -0.1091E-05  0 -0.9447E-06  1 -0.2622E-06
   (  4,  1,  6)  (  1,  1, 10)  ( 13,  1,  2)  (  3,  1,  3)  ( 40,  1,  6)

 MAXIMUM RESIDUAL FOR EACH ITERATION (1 INDICATES THE FIRST INNER ITERATION):

    RESIDUAL       RESIDUAL       RESIDUAL       RESIDUAL       RESIDUAL    
   LAYER,ROW,COL  LAYER,ROW,COL  LAYER,ROW,COL  LAYER,ROW,COL  LAYER,ROW,COL
 ---------------------------------------------------------------------------
  1   7.529      0   4.842      0  -2.034      0  -1.266      0 -0.9310    
   ( 50,  1, 57)  ( 50,  1, 49)  ( 50,  1, 62)  ( 50,  1, 68)  ( 50,  1, 46)
  0 -0.5263      0 -0.3770      0  0.1735      0  0.1185      0  0.8885E-01
   ( 49,  1, 57)  ( 49,  1, 54)  ( 50,  1, 46)  ( 49,  1, 58)  ( 49,  1, 53)
  0  0.5502E-01  0  0.4776E-01  0 -0.3723E-01  0 -0.2992E-01  0 -0.2538E-01
   ( 46,  1, 99)  ( 42,  1, 99)  ( 47,  1, 99)  ( 44,  1, 99)  ( 40,  1, 99)
  0  0.2761E-01  0  0.2558E-01  0 -0.2311E-01  0 -0.2327E-01  1 -0.8488E-02
   ( 45,  1, 99)  ( 42,  1, 99)  ( 47,  1, 99)  ( 44,  1, 99)  ( 44,  1, 99)


 FLOW MODEL IS TRANSIENT
 FLOW MODEL CONTAINS CONSTANT-HEAD CELLS


 MAXIMUM STEPSIZE DURING WHICH ANY PARTICLE CANNOT MOVE MORE THAN ONE CELL
 =  9.402    (WHEN MIN. R.F.=1)  AT K=   1, I=   1, J=  99

 MAXIMUM STEPSIZE WHICH MEETS STABILITY CRITERION OF THE ADVECTION TERM
 (FOR PURE FINITE-DIFFERENCE OPTION, MIXELM=0) 
 =  9.171    (WHEN MIN. R.F.=1)  AT K=   1, I=   1, J=  99


 TOTAL NUMBER OF POINT SOURCES/SINKS PRESENT IN THE FLOW MODEL =       100

 MAXIMUM STEPSIZE WHICH MEETS STABILITY CRITERION OF THE SINK & SOURCE TERM
 =  122.8    (WHEN MIN. R.F.=1)  AT K=   1, I=   1, J=   1

 MAXIMUM STEPSIZE WHICH MEETS STABILITY CRITERION OF THE DISPERSION TERM
 =  2.094    (WHEN MIN. R.F.=1)  AT K=   1, I=   1, J=  99
     5 CALLS TO GCG PACKAGE FOR TRANSPORT TIME STEP   8 IN FLOW TIME STEP   1 STRESS PERIOD   5
    15 TOTAL ITERATIONS
 
 SOLVING FOR HEAD 


     2 CALLS TO PCG ROUTINE FOR TIME STEP   1 IN STRESS PERIOD    5
    20 TOTAL ITERATIONS

 MAXIMUM HEAD CHANGE FOR EACH ITERATION (1 INDICATES THE FIRST INNER ITERATION):

    HEAD CHANGE    HEAD CHANGE    HEAD CHANGE    HEAD CHANGE    HEAD CHANGE 
   LAYER,ROW,COL  LAYER,ROW,COL  LAYER,ROW,COL  LAYER,ROW,COL  LAYER,ROW,COL
 ---------------------------------------------------------------------------
  1  0.1041E-02  0  0.3362E-03  0  0.1710E-03  0  0.9262E-04  0  0.6058E-04
   ( 50,  1, 55)  ( 48,  1, 62)  ( 46,  1, 68)  ( 42,  1, 72)  ( 39,  1, 75)
  0  0.3689E-04  0 -0.2081E-04  0 -0.1192E-04  0 -0.8698E-05  0 -0.6486E-05
   ( 50,  1, 73)  (  2,  1, 73)  (  3,  1, 57)  (  1,  1, 59)  (  2,  1, 47)
  0 -0.4614E-05  0 -0.3115E-05  0 -0.2003E-05  0 -0.1349E-05  0 -0.1257E-05
   (  1,  1, 51)  (  3,  1, 43)  (  5,  1, 38)  (  1,  1, 34)  (  7,  1,  3)
  0 -0.1402E-05  0 -0.1378E-05  0 -0.1225E-05  0 -0.9926E-06  1 -0.2840E-06
   (  4,  1,  6)  (  1,  1,  9)  ( 13,  1,  2)  (  3,  1,  3)  ( 40,  1,  6)

 MAXIMUM RESIDUAL FOR EACH ITERATION (1 INDICATES THE FIRST INNER ITERATION):

    RESIDUAL       RESIDUAL       RESIDUAL       RESIDUAL       RESIDUAL    
   LAYER,ROW,COL  LAYER,ROW,COL  LAYER,ROW,COL  LAYER,ROW,COL  LAYER,ROW,COL
 ---------------------------------------------------------------------------
  1   7.487      0   4.810      0  -2.032      0  -1.266      0 -0.9311    
   ( 50,  1, 57)  ( 50,  1, 49)  ( 50,  1, 62)  ( 50,  1, 68)  ( 50,  1, 46)
  0 -0.5259      0 -0.3763      0  0.1729      0  0.1186      0  0.8901E-01
   ( 49,  1, 57)  ( 49,  1, 53)  ( 50,  1, 46)  ( 49,  1, 57)  ( 49,  1, 53)
  0  0.5474E-01  0  0.4813E-01  0 -0.3803E-01  0 -0.3147E-01  0 -0.2763E-01
   ( 46,  1, 99)  ( 42,  1, 99)  ( 47,  1, 99)  ( 43,  1, 99)  ( 40,  1, 99)
  0  0.3100E-01  0  0.2891E-01  0 -0.2584E-01  0 -0.2550E-01  1 -0.9337E-02
   ( 45,  1, 99)  ( 42,  1, 99)  ( 47,  1, 99)  ( 44,  1, 99)  ( 44,  1, 99)


 FLOW MODEL IS TRANSIENT
 FLOW MODEL CONTAINS CONSTANT-HEAD CELLS


 MAXIMUM STEPSIZE DURING WHICH ANY PARTICLE CANNOT MOVE MORE THAN ONE CELL
 =  9.407    (WHEN MIN. R.F.=1)  AT K=   1, I=   1, J=  99

 MAXIMUM STEPSIZE WHICH MEETS STABILITY CRITERION OF THE ADVECTION TERM
 (FOR PURE FINITE-DIFFERENCE OPTION, MIXELM=0) 
 =  9.175    (WHEN MIN. R.F.=1)  AT K=   1, I=   1, J=  99


 TOTAL NUMBER OF POINT SOURCES/SINKS PRESENT IN THE FLOW MODEL =       100

 MAXIMUM STEPSIZE WHICH MEETS STABILITY CRITERION OF THE SINK & SOURCE TERM
 =  122.8    (WHEN MIN. R.F.=1)  AT K=   1, I=   1, J=   1

 MAXIMUM STEPSIZE WHICH MEETS STABILITY CRITERION OF THE DISPERSION TERM
 =  2.095    (WHEN MIN. R.F.=1)  AT K=   1, I=   1, J=  99
     5 CALLS TO GCG PACKAGE FOR TRANSPORT TIME STEP   9 IN FLOW TIME STEP   1 STRESS PERIOD   5
    15 TOTAL ITERATIONS
 
 SOLVING FOR HEAD 


     2 CALLS TO PCG ROUTINE FOR TIME STEP   1 IN STRESS PERIOD    5
    20 TOTAL ITERATIONS

 MAXIMUM HEAD CHANGE FOR EACH ITERATION (1 INDICATES THE FIRST INNER ITERATION):

    HEAD CHANGE    HEAD CHANGE    HEAD CHANGE    HEAD CHANGE    HEAD CHANGE 
   LAYER,ROW,COL  LAYER,ROW,COL  LAYER,ROW,COL  LAYER,ROW,COL  LAYER,ROW,COL
 ---------------------------------------------------------------------------
  1  0.1037E-02  0  0.3349E-03  0  0.1703E-03  0  0.9236E-04  0  0.6050E-04
   ( 50,  1, 54)  ( 48,  1, 62)  ( 46,  1, 68)  ( 42,  1, 72)  ( 39,  1, 75)
  0  0.3683E-04  0 -0.2056E-04  0  0.1194E-04  0 -0.8582E-05  0 -0.6368E-05
   ( 50,  1, 73)  (  2,  1, 73)  ( 49,  1, 54)  (  1,  1, 59)  (  2,  1, 47)
  0 -0.4528E-05  0 -0.3024E-05  0 -0.1902E-05  0 -0.1241E-05  0 -0.1100E-05
   (  2,  1, 52)  (  3,  1, 43)  (  5,  1, 38)  (  1,  1, 34)  (  7,  1,  3)
  0 -0.1208E-05  0 -0.1190E-05  0 -0.1074E-05  0 -0.9319E-06  1 -0.2569E-06
   (  4,  1,  6)  (  1,  1,  9)  ( 13,  1,  2)  (  3,  1,  3)  ( 40,  1,  6)

 MAXIMUM RESIDUAL FOR EACH ITERATION (1 INDICATES THE FIRST INNER ITERATION):

    RESIDUAL       RESIDUAL       RESIDUAL       RESIDUAL       RESIDUAL    
   LAYER,ROW,COL  LAYER,ROW,COL  LAYER,ROW,COL  LAYER,ROW,COL  LAYER,ROW,COL
 ---------------------------------------------------------------------------
  1   7.473      0   4.770      0  -2.028      0  -1.263      0 -0.9293    
   ( 50,  1, 56)  ( 50,  1, 49)  ( 50,  1, 62)  ( 50,  1, 68)  ( 50,  1, 46)
  0 -0.5251      0 -0.3760      0  0.1712      0  0.1180      0  0.8760E-01
   ( 49,  1, 57)  ( 49,  1, 53)  ( 50,  1, 46)  ( 49,  1, 57)  ( 49,  1, 53)
  0  0.5341E-01  0  0.4672E-01  0 -0.3643E-01  0 -0.2940E-01  0 -0.2495E-01
   ( 46,  1, 99)  ( 42,  1, 99)  ( 47,  1, 99)  ( 44,  1, 99)  ( 40,  1, 99)
  0  0.2709E-01  0  0.2511E-01  0 -0.2257E-01  0 -0.2283E-01  1 -0.8362E-02
   ( 45,  1, 99)  ( 42,  1, 99)  ( 47,  1, 99)  ( 44,  1, 99)  ( 44,  1, 99)


 FLOW MODEL IS TRANSIENT
 FLOW MODEL CONTAINS CONSTANT-HEAD CELLS


 MAXIMUM STEPSIZE DURING WHICH ANY PARTICLE CANNOT MOVE MORE THAN ONE CELL
 =  9.411    (WHEN MIN. R.F.=1)  AT K=   1, I=   1, J=  99

 MAXIMUM STEPSIZE WHICH MEETS STABILITY CRITERION OF THE ADVECTION TERM
 (FOR PURE FINITE-DIFFERENCE OPTION, MIXELM=0) 
 =  9.179    (WHEN MIN. R.F.=1)  AT K=   1, I=   1, J=  99


 TOTAL NUMBER OF POINT SOURCES/SINKS PRESENT IN THE FLOW MODEL =       100

 MAXIMUM STEPSIZE WHICH MEETS STABILITY CRITERION OF THE SINK & SOURCE TERM
 =  122.8    (WHEN MIN. R.F.=1)  AT K=   1, I=   1, J=   1

 MAXIMUM STEPSIZE WHICH MEETS STABILITY CRITERION OF THE DISPERSION TERM
 =  2.096    (WHEN MIN. R.F.=1)  AT K=   1, I=   1, J=  99
     5 CALLS TO GCG PACKAGE FOR TRANSPORT TIME STEP  10 IN FLOW TIME STEP   1 STRESS PERIOD   5
    15 TOTAL ITERATIONS
 
 SOLVING FOR HEAD 


     2 CALLS TO PCG ROUTINE FOR TIME STEP   1 IN STRESS PERIOD    5
    19 TOTAL ITERATIONS

 MAXIMUM HEAD CHANGE FOR EACH ITERATION (1 INDICATES THE FIRST INNER ITERATION):

    HEAD CHANGE    HEAD CHANGE    HEAD CHANGE    HEAD CHANGE    HEAD CHANGE 
   LAYER,ROW,COL  LAYER,ROW,COL  LAYER,ROW,COL  LAYER,ROW,COL  LAYER,ROW,COL
 ---------------------------------------------------------------------------
  1  0.1034E-02  0  0.3335E-03  0  0.1697E-03  0  0.9208E-04  0  0.6042E-04
   ( 50,  1, 54)  ( 48,  1, 62)  ( 46,  1, 68)  ( 42,  1, 71)  ( 39,  1, 75)
  0  0.3676E-04  0 -0.2065E-04  0  0.1193E-04  0 -0.8572E-05  0 -0.6283E-05
   ( 50,  1, 73)  (  2,  1, 73)  ( 49,  1, 54)  (  1,  1, 58)  (  2,  1, 47)
  0 -0.4458E-05  0 -0.2968E-05  0 -0.1840E-05  0 -0.1172E-05  0 -0.1010E-05
   (  2,  1, 52)  (  3,  1, 43)  (  5,  1, 38)  (  1,  1, 34)  (  7,  1,  3)
  0 -0.1093E-05  0 -0.1076E-05  0 -0.9753E-06  1 -0.2665E-06
   (  4,  1,  6)  (  1,  1,  9)  ( 13,  1,  2)  ( 48,  1,  6)

 MAXIMUM RESIDUAL FOR EACH ITERATION (1 INDICATES THE FIRST INNER ITERATION):

    RESIDUAL       RESIDUAL       RESIDUAL       RESIDUAL       RESIDUAL    
   LAYER,ROW,COL  LAYER,ROW,COL  LAYER,ROW,COL  LAYER,ROW,COL  LAYER,ROW,COL
 ---------------------------------------------------------------------------
  1   7.454      0   4.776      0  -2.021      0  -1.261      0 -0.9272    
   ( 50,  1, 56)  ( 50,  1, 48)  ( 50,  1, 62)  ( 50,  1, 68)  ( 50,  1, 46)
  0 -0.5243      0 -0.3759      0  0.1703      0  0.1173      0  0.8744E-01
   ( 49,  1, 57)  ( 49,  1, 53)  ( 50,  1, 45)  ( 49,  1, 57)  ( 49,  1, 52)
  0  0.5253E-01  0  0.4587E-01  0 -0.3533E-01  0 -0.2822E-01  0 -0.2332E-01
   ( 46,  1, 99)  ( 42,  1, 99)  ( 47,  1, 99)  ( 44,  1, 99)  ( 40,  1, 99)
  0  0.2458E-01  0  0.2280E-01  0 -0.2038E-01  1 -0.7870E-02
   ( 45,  1, 99)  ( 42,  1, 99)  ( 47,  1, 99)  (  1,  1, 99)


 FLOW MODEL IS TRANSIENT
 FLOW MODEL CONTAINS CONSTANT-HEAD CELLS


 MAXIMUM STEPSIZE DURING WHICH ANY PARTICLE CANNOT MOVE MORE THAN ONE CELL
 =  9.415    (WHEN MIN. R.F.=1)  AT K=   1, I=   1, J=  99

 MAXIMUM STEPSIZE WHICH MEETS STABILITY CRITERION OF THE ADVECTION TERM
 (FOR PURE FINITE-DIFFERENCE OPTION, MIXELM=0) 
 =  9.184    (WHEN MIN. R.F.=1)  AT K=   1, I=   1, J=  99


 TOTAL NUMBER OF POINT SOURCES/SINKS PRESENT IN THE FLOW MODEL =       100

 MAXIMUM STEPSIZE WHICH MEETS STABILITY CRITERION OF THE SINK & SOURCE TERM
 =  122.8    (WHEN MIN. R.F.=1)  AT K=   1, I=   1, J=   1

 MAXIMUM STEPSIZE WHICH MEETS STABILITY CRITERION OF THE DISPERSION TERM
 =  2.097    (WHEN MIN. R.F.=1)  AT K=   1, I=   1, J=  99
     5 CALLS TO GCG PACKAGE FOR TRANSPORT TIME STEP  11 IN FLOW TIME STEP   1 STRESS PERIOD   5
    15 TOTAL ITERATIONS
 
 SOLVING FOR HEAD 


     2 CALLS TO PCG ROUTINE FOR TIME STEP   1 IN STRESS PERIOD    5
    20 TOTAL ITERATIONS

 MAXIMUM HEAD CHANGE FOR EACH ITERATION (1 INDICATES THE FIRST INNER ITERATION):

    HEAD CHANGE    HEAD CHANGE    HEAD CHANGE    HEAD CHANGE    HEAD CHANGE 
   LAYER,ROW,COL  LAYER,ROW,COL  LAYER,ROW,COL  LAYER,ROW,COL  LAYER,ROW,COL
 ---------------------------------------------------------------------------
  1  0.1031E-02  0  0.3321E-03  0  0.1691E-03  0  0.9205E-04  0  0.6058E-04
   ( 50,  1, 54)  ( 48,  1, 62)  ( 46,  1, 67)  ( 42,  1, 71)  ( 39,  1, 75)
  0  0.3655E-04  0 -0.2146E-04  0 -0.1220E-04  0 -0.8902E-05  0 -0.6549E-05
   ( 50,  1, 73)  (  3,  1, 73)  (  1,  1, 77)  (  1,  1, 57)  (  2,  1, 47)
  0 -0.4505E-05  0 -0.2948E-05  0 -0.1887E-05  0 -0.1249E-05  0 -0.1150E-05
   (  1,  1, 51)  (  2,  1, 41)  (  4,  1, 36)  (  5,  1, 18)  (  4,  1, 10)
  0 -0.1268E-05  0 -0.1261E-05  0 -0.1144E-05  0 -0.9414E-06  1 -0.2608E-06
   (  5,  1,  6)  (  1,  1,  8)  ( 15,  1,  2)  (  2,  1,  3)  ( 49,  1,  5)

 MAXIMUM RESIDUAL FOR EACH ITERATION (1 INDICATES THE FIRST INNER ITERATION):

    RESIDUAL       RESIDUAL       RESIDUAL       RESIDUAL       RESIDUAL    
   LAYER,ROW,COL  LAYER,ROW,COL  LAYER,ROW,COL  LAYER,ROW,COL  LAYER,ROW,COL
 ---------------------------------------------------------------------------
  1   7.434      0   4.775      0  -2.015      0  -1.259      0 -0.9260    
   ( 50,  1, 56)  ( 50,  1, 48)  ( 50,  1, 62)  ( 50,  1, 68)  ( 50,  1, 46)
  0 -0.5251      0 -0.3778      0  0.1732      0  0.1182      0  0.8844E-01
   ( 49,  1, 57)  ( 49,  1, 53)  ( 50,  1, 45)  ( 49,  1, 57)  ( 49,  1, 52)
  0  0.5221E-01  0  0.4607E-01  0 -0.3580E-01  0 -0.2932E-01  0 -0.2521E-01
   ( 46,  1, 99)  ( 42,  1, 99)  ( 47,  1, 99)  ( 44,  1, 99)  ( 40,  1, 99)
  0  0.2729E-01  0  0.2593E-01  0 -0.2309E-01  0 -0.2325E-01  1 -0.8220E-02
   ( 45,  1, 99)  ( 42,  1, 99)  ( 47,  1, 99)  ( 44,  1, 99)  ( 44,  1, 99)


 FLOW MODEL IS TRANSIENT
 FLOW MODEL CONTAINS CONSTANT-HEAD CELLS


 MAXIMUM STEPSIZE DURING WHICH ANY PARTICLE CANNOT MOVE MORE THAN ONE CELL
 =  9.420    (WHEN MIN. R.F.=1)  AT K=   1, I=   1, J=  99

 MAXIMUM STEPSIZE WHICH MEETS STABILITY CRITERION OF THE ADVECTION TERM
 (FOR PURE FINITE-DIFFERENCE OPTION, MIXELM=0) 
 =  9.188    (WHEN MIN. R.F.=1)  AT K=   1, I=   1, J=  99


 TOTAL NUMBER OF POINT SOURCES/SINKS PRESENT IN THE FLOW MODEL =       100

 MAXIMUM STEPSIZE WHICH MEETS STABILITY CRITERION OF THE SINK & SOURCE TERM
 =  122.8    (WHEN MIN. R.F.=1)  AT K=   1, I=   1, J=   1

 MAXIMUM STEPSIZE WHICH MEETS STABILITY CRITERION OF THE DISPERSION TERM
 =  2.098    (WHEN MIN. R.F.=1)  AT K=   1, I=   1, J=  99
     5 CALLS TO GCG PACKAGE FOR TRANSPORT TIME STEP  12 IN FLOW TIME STEP   1 STRESS PERIOD   5
    15 TOTAL ITERATIONS
 
 SOLVING FOR HEAD 


     2 CALLS TO PCG ROUTINE FOR TIME STEP   1 IN STRESS PERIOD    5
    20 TOTAL ITERATIONS

 MAXIMUM HEAD CHANGE FOR EACH ITERATION (1 INDICATES THE FIRST INNER ITERATION):

    HEAD CHANGE    HEAD CHANGE    HEAD CHANGE    HEAD CHANGE    HEAD CHANGE 
   LAYER,ROW,COL  LAYER,ROW,COL  LAYER,ROW,COL  LAYER,ROW,COL  LAYER,ROW,COL
 ---------------------------------------------------------------------------
  1  0.1027E-02  0  0.3304E-03  0  0.1685E-03  0  0.9149E-04  0  0.6005E-04
   ( 50,  1, 54)  ( 48,  1, 62)  ( 46,  1, 67)  ( 42,  1, 71)  ( 39,  1, 75)
  0  0.3655E-04  0 -0.2066E-04  0  0.1179E-04  0 -0.8590E-05  0 -0.6272E-05
   ( 50,  1, 72)  (  2,  1, 73)  ( 49,  1, 54)  (  1,  1, 58)  (  2,  1, 46)
  0 -0.4579E-05  0 -0.3096E-05  0 -0.1948E-05  0 -0.1271E-05  0 -0.1104E-05
   (  1,  1, 50)  (  3,  1, 43)  (  4,  1, 36)  (  5,  1, 29)  (  7,  1,  3)
  0 -0.1238E-05  0 -0.1235E-05  0 -0.1110E-05  0 -0.9504E-06  1 -0.2627E-06
   (  5,  1,  6)  (  1,  1,  9)  ( 14,  1,  2)  (  3,  1,  3)  ( 40,  1,  6)

 MAXIMUM RESIDUAL FOR EACH ITERATION (1 INDICATES THE FIRST INNER ITERATION):

    RESIDUAL       RESIDUAL       RESIDUAL       RESIDUAL       RESIDUAL    
   LAYER,ROW,COL  LAYER,ROW,COL  LAYER,ROW,COL  LAYER,ROW,COL  LAYER,ROW,COL
 ---------------------------------------------------------------------------
  1   7.409      0   4.770      0  -2.006      0  -1.258      0 -0.9251    
   ( 50,  1, 56)  ( 50,  1, 48)  ( 50,  1, 62)  ( 50,  1, 68)  ( 50,  1, 46)
  0 -0.5221      0 -0.3763      0  0.1730      0  0.1174      0  0.8856E-01
   ( 49,  1, 57)  ( 49,  1, 53)  ( 50,  1, 45)  ( 49,  1, 57)  ( 49,  1, 52)
  0  0.5155E-01  0  0.4563E-01  0 -0.3564E-01  0 -0.2924E-01  0 -0.2508E-01
   ( 46,  1, 99)  ( 42,  1, 99)  ( 47,  1, 99)  ( 44,  1, 99)  ( 40,  1, 99)
  0  0.2724E-01  0  0.2578E-01  0 -0.2290E-01  0 -0.2306E-01  1 -0.8249E-02
   ( 45,  1, 99)  ( 42,  1, 99)  ( 47,  1, 99)  ( 44,  1, 99)  ( 44,  1, 99)


 FLOW MODEL IS TRANSIENT
 FLOW MODEL CONTAINS CONSTANT-HEAD CELLS


 MAXIMUM STEPSIZE DURING WHICH ANY PARTICLE CANNOT MOVE MORE THAN ONE CELL
 =  9.424    (WHEN MIN. R.F.=1)  AT K=   1, I=   1, J=  99

 MAXIMUM STEPSIZE WHICH MEETS STABILITY CRITERION OF THE ADVECTION TERM
 (FOR PURE FINITE-DIFFERENCE OPTION, MIXELM=0) 
 =  9.192    (WHEN MIN. R.F.=1)  AT K=   1, I=   1, J=  99


 TOTAL NUMBER OF POINT SOURCES/SINKS PRESENT IN THE FLOW MODEL =       100

 MAXIMUM STEPSIZE WHICH MEETS STABILITY CRITERION OF THE SINK & SOURCE TERM
 =  122.8    (WHEN MIN. R.F.=1)  AT K=   1, I=   1, J=   1

 MAXIMUM STEPSIZE WHICH MEETS STABILITY CRITERION OF THE DISPERSION TERM
 =  2.099    (WHEN MIN. R.F.=1)  AT K=   1, I=   1, J=  99
     5 CALLS TO GCG PACKAGE FOR TRANSPORT TIME STEP  13 IN FLOW TIME STEP   1 STRESS PERIOD   5
    15 TOTAL ITERATIONS
 
 SOLVING FOR HEAD 


     2 CALLS TO PCG ROUTINE FOR TIME STEP   1 IN STRESS PERIOD    5
    20 TOTAL ITERATIONS

 MAXIMUM HEAD CHANGE FOR EACH ITERATION (1 INDICATES THE FIRST INNER ITERATION):

    HEAD CHANGE    HEAD CHANGE    HEAD CHANGE    HEAD CHANGE    HEAD CHANGE 
   LAYER,ROW,COL  LAYER,ROW,COL  LAYER,ROW,COL  LAYER,ROW,COL  LAYER,ROW,COL
 ---------------------------------------------------------------------------
  1  0.1023E-02  0  0.3288E-03  0  0.1680E-03  0  0.9135E-04  0  0.6006E-04
   ( 50,  1, 54)  ( 48,  1, 62)  ( 46,  1, 67)  ( 42,  1, 71)  ( 39,  1, 74)
  0  0.3649E-04  0 -0.2057E-04  0  0.1177E-04  0 -0.8574E-05  0 -0.6253E-05
   ( 50,  1, 72)  (  2,  1, 73)  ( 49,  1, 54)  (  1,  1, 58)  (  2,  1, 46)
  0 -0.4531E-05  0 -0.3070E-05  0 -0.1934E-05  0 -0.1260E-05  0 -0.1115E-05
   (  1,  1, 50)  (  3,  1, 43)  (  4,  1, 36)  (  5,  1, 29)  (  8,  1,  3)
  0 -0.1258E-05  0 -0.1248E-05  0 -0.1109E-05  0 -0.9428E-06  1 -0.2594E-06
   (  5,  1,  6)  (  1,  1,  9)  ( 14,  1,  2)  (  3,  1,  3)  ( 40,  1,  6)

 MAXIMUM RESIDUAL FOR EACH ITERATION (1 INDICATES THE FIRST INNER ITERATION):

    RESIDUAL       RESIDUAL       RESIDUAL       RESIDUAL       RESIDUAL    
   LAYER,ROW,COL  LAYER,ROW,COL  LAYER,ROW,COL  LAYER,ROW,COL  LAYER,ROW,COL
 ---------------------------------------------------------------------------
  1   7.383      0   4.758      0  -1.999      0  -1.252      0 -0.9222    
   ( 50,  1, 56)  ( 50,  1, 48)  ( 50,  1, 62)  ( 50,  1, 68)  ( 50,  1, 45)
  0 -0.5196      0 -0.3738      0  0.1712      0  0.1167      0  0.8760E-01
   ( 49,  1, 57)  ( 49,  1, 53)  ( 50,  1, 45)  ( 49,  1, 57)  ( 49,  1, 52)
  0  0.5063E-01  0  0.4513E-01  0 -0.3525E-01  0 -0.2907E-01  0 -0.2501E-01
   ( 46,  1, 99)  ( 42,  1, 99)  ( 47,  1, 99)  ( 44,  1, 99)  ( 40,  1, 99)
  0  0.2725E-01  0  0.2576E-01  0 -0.2280E-01  0 -0.2301E-01  1 -0.8312E-02
   ( 45,  1, 99)  ( 42,  1, 99)  ( 47,  1, 99)  ( 44,  1, 99)  ( 44,  1, 99)


 FLOW MODEL IS TRANSIENT
 FLOW MODEL CONTAINS CONSTANT-HEAD CELLS


 MAXIMUM STEPSIZE DURING WHICH ANY PARTICLE CANNOT MOVE MORE THAN ONE CELL
 =  9.428    (WHEN MIN. R.F.=1)  AT K=   1, I=   1, J=  99

 MAXIMUM STEPSIZE WHICH MEETS STABILITY CRITERION OF THE ADVECTION TERM
 (FOR PURE FINITE-DIFFERENCE OPTION, MIXELM=0) 
 =  9.195    (WHEN MIN. R.F.=1)  AT K=   1, I=   1, J=  99


 TOTAL NUMBER OF POINT SOURCES/SINKS PRESENT IN THE FLOW MODEL =       100

 MAXIMUM STEPSIZE WHICH MEETS STABILITY CRITERION OF THE SINK & SOURCE TERM
 =  122.8    (WHEN MIN. R.F.=1)  AT K=   1, I=   1, J=   1

 MAXIMUM STEPSIZE WHICH MEETS STABILITY CRITERION OF THE DISPERSION TERM
 =  2.100    (WHEN MIN. R.F.=1)  AT K=   1, I=   1, J=  99
     5 CALLS TO GCG PACKAGE FOR TRANSPORT TIME STEP  14 IN FLOW TIME STEP   1 STRESS PERIOD   5
    15 TOTAL ITERATIONS
 
 SOLVING FOR HEAD 


     2 CALLS TO PCG ROUTINE FOR TIME STEP   1 IN STRESS PERIOD    5
    20 TOTAL ITERATIONS

 MAXIMUM HEAD CHANGE FOR EACH ITERATION (1 INDICATES THE FIRST INNER ITERATION):

    HEAD CHANGE    HEAD CHANGE    HEAD CHANGE    HEAD CHANGE    HEAD CHANGE 
   LAYER,ROW,COL  LAYER,ROW,COL  LAYER,ROW,COL  LAYER,ROW,COL  LAYER,ROW,COL
 ---------------------------------------------------------------------------
  1  0.1019E-02  0  0.3273E-03  0  0.1675E-03  0  0.9117E-04  0  0.5997E-04
   ( 50,  1, 54)  ( 48,  1, 62)  ( 46,  1, 67)  ( 42,  1, 71)  ( 39,  1, 74)
  0  0.3642E-04  0 -0.2065E-04  0  0.1171E-04  0 -0.8608E-05  0 -0.6232E-05
   ( 50,  1, 72)  (  2,  1, 73)  ( 49,  1, 54)  (  1,  1, 58)  (  2,  1, 46)
  0 -0.4525E-05  0 -0.3095E-05  0 -0.1962E-05  0 -0.1287E-05  0 -0.1154E-05
   (  1,  1, 50)  (  3,  1, 42)  (  5,  1, 37)  (  6,  1, 31)  (  8,  1,  3)
  0 -0.1315E-05  0 -0.1305E-05  0 -0.1145E-05  0 -0.9567E-06  1 -0.2652E-06
   (  5,  1,  6)  (  1,  1,  9)  ( 14,  1,  2)  (  3,  1,  3)  ( 40,  1,  6)

 MAXIMUM RESIDUAL FOR EACH ITERATION (1 INDICATES THE FIRST INNER ITERATION):

    RESIDUAL       RESIDUAL       RESIDUAL       RESIDUAL       RESIDUAL    
   LAYER,ROW,COL  LAYER,ROW,COL  LAYER,ROW,COL  LAYER,ROW,COL  LAYER,ROW,COL
 ---------------------------------------------------------------------------
  1   7.350      0   4.736      0  -1.994      0  -1.248      0 -0.9220    
   ( 50,  1, 56)  ( 50,  1, 48)  ( 50,  1, 61)  ( 50,  1, 67)  ( 50,  1, 45)
  0 -0.5197      0 -0.3717      0  0.1710      0  0.1163      0  0.8734E-01
   ( 49,  1, 56)  ( 49,  1, 53)  ( 50,  1, 45)  ( 49,  1, 57)  ( 49,  1, 52)
  0  0.5015E-01  0  0.4498E-01  0 -0.3529E-01  0 -0.2935E-01  0 -0.2557E-01
   ( 46,  1, 99)  ( 42,  1, 99)  ( 47,  1, 99)  ( 44,  1, 99)  ( 40,  1, 99)
  0  0.2815E-01  0  0.2672E-01  0 -0.2351E-01  0 -0.2357E-01  1 -0.8516E-02
   ( 45,  1, 99)  ( 42,  1, 99)  ( 47,  1, 99)  ( 44,  1, 99)  ( 44,  1, 99)


 FLOW MODEL IS TRANSIENT
 FLOW MODEL CONTAINS CONSTANT-HEAD CELLS


 MAXIMUM STEPSIZE DURING WHICH ANY PARTICLE CANNOT MOVE MORE THAN ONE CELL
 =  9.432    (WHEN MIN. R.F.=1)  AT K=   1, I=   1, J=  99

 MAXIMUM STEPSIZE WHICH MEETS STABILITY CRITERION OF THE ADVECTION TERM
 (FOR PURE FINITE-DIFFERENCE OPTION, MIXELM=0) 
 =  9.199    (WHEN MIN. R.F.=1)  AT K=   1, I=   1, J=  99


 TOTAL NUMBER OF POINT SOURCES/SINKS PRESENT IN THE FLOW MODEL =       100

 MAXIMUM STEPSIZE WHICH MEETS STABILITY CRITERION OF THE SINK & SOURCE TERM
 =  122.8    (WHEN MIN. R.F.=1)  AT K=   1, I=   1, J=   1

 MAXIMUM STEPSIZE WHICH MEETS STABILITY CRITERION OF THE DISPERSION TERM
 =  2.101    (WHEN MIN. R.F.=1)  AT K=   1, I=   1, J=  99
     5 CALLS TO GCG PACKAGE FOR TRANSPORT TIME STEP  15 IN FLOW TIME STEP   1 STRESS PERIOD   5
    15 TOTAL ITERATIONS
 
 SOLVING FOR HEAD 


     2 CALLS TO PCG ROUTINE FOR TIME STEP   1 IN STRESS PERIOD    5
    20 TOTAL ITERATIONS

 MAXIMUM HEAD CHANGE FOR EACH ITERATION (1 INDICATES THE FIRST INNER ITERATION):

    HEAD CHANGE    HEAD CHANGE    HEAD CHANGE    HEAD CHANGE    HEAD CHANGE 
   LAYER,ROW,COL  LAYER,ROW,COL  LAYER,ROW,COL  LAYER,ROW,COL  LAYER,ROW,COL
 ---------------------------------------------------------------------------
  1  0.1014E-02  0  0.3258E-03  0  0.1669E-03  0  0.9089E-04  0  0.5990E-04
   ( 50,  1, 54)  ( 48,  1, 61)  ( 46,  1, 67)  ( 42,  1, 71)  ( 39,  1, 74)
  0  0.3634E-04  0 -0.2054E-04  0  0.1170E-04  0 -0.8537E-05  0 -0.6143E-05
   ( 50,  1, 72)  (  2,  1, 73)  ( 49,  1, 53)  (  1,  1, 58)  (  2,  1, 46)
  0 -0.4472E-05  0 -0.3049E-05  0 -0.1905E-05  0 -0.1221E-05  0 -0.1062E-05
   (  2,  1, 51)  (  3,  1, 42)  (  5,  1, 37)  (  6,  1, 31)  (  4,  1, 10)
  0 -0.1190E-05  0 -0.1183E-05  0 -0.1046E-05  0 -0.9160E-06  1 -0.2475E-06
   (  5,  1,  6)  (  1,  1,  9)  (  6,  1,  1)  (  3,  1,  3)  ( 40,  1,  6)

 MAXIMUM RESIDUAL FOR EACH ITERATION (1 INDICATES THE FIRST INNER ITERATION):

    RESIDUAL       RESIDUAL       RESIDUAL       RESIDUAL       RESIDUAL    
   LAYER,ROW,COL  LAYER,ROW,COL  LAYER,ROW,COL  LAYER,ROW,COL  LAYER,ROW,COL
 ---------------------------------------------------------------------------
  1   7.314      0   4.708      0  -1.990      0  -1.247      0 -0.9216    
   ( 50,  1, 56)  ( 50,  1, 48)  ( 50,  1, 61)  ( 50,  1, 67)  ( 50,  1, 45)
  0 -0.5190      0 -0.3704      0  0.1705      0  0.1155      0  0.8661E-01
   ( 49,  1, 56)  ( 49,  1, 52)  ( 50,  1, 45)  ( 49,  1, 56)  ( 49,  1, 52)
  0  0.4896E-01  0  0.4398E-01  0 -0.3410E-01  0 -0.2809E-01  0 -0.2387E-01
   ( 46,  1, 99)  ( 42,  1, 99)  ( 47,  1, 99)  ( 44,  1, 99)  ( 40,  1, 99)
  0  0.2567E-01  0  0.2432E-01  0 -0.2145E-01  0 -0.2182E-01  1 -0.7854E-02
   ( 45,  1, 99)  ( 42,  1, 99)  ( 47,  1, 99)  ( 44,  1, 99)  ( 44,  1, 99)


 FLOW MODEL IS TRANSIENT
 FLOW MODEL CONTAINS CONSTANT-HEAD CELLS


 MAXIMUM STEPSIZE DURING WHICH ANY PARTICLE CANNOT MOVE MORE THAN ONE CELL
 =  9.436    (WHEN MIN. R.F.=1)  AT K=   1, I=   1, J=  99

 MAXIMUM STEPSIZE WHICH MEETS STABILITY CRITERION OF THE ADVECTION TERM
 (FOR PURE FINITE-DIFFERENCE OPTION, MIXELM=0) 
 =  9.203    (WHEN MIN. R.F.=1)  AT K=   1, I=   1, J=  99


 TOTAL NUMBER OF POINT SOURCES/SINKS PRESENT IN THE FLOW MODEL =       100

 MAXIMUM STEPSIZE WHICH MEETS STABILITY CRITERION OF THE SINK & SOURCE TERM
 =  122.8    (WHEN MIN. R.F.=1)  AT K=   1, I=   1, J=   1

 MAXIMUM STEPSIZE WHICH MEETS STABILITY CRITERION OF THE DISPERSION TERM
 =  2.102    (WHEN MIN. R.F.=1)  AT K=   1, I=   1, J=  99
     5 CALLS TO GCG PACKAGE FOR TRANSPORT TIME STEP  16 IN FLOW TIME STEP   1 STRESS PERIOD   5
    15 TOTAL ITERATIONS
 
 SOLVING FOR HEAD 


     2 CALLS TO PCG ROUTINE FOR TIME STEP   1 IN STRESS PERIOD    5
    20 TOTAL ITERATIONS

 MAXIMUM HEAD CHANGE FOR EACH ITERATION (1 INDICATES THE FIRST INNER ITERATION):

    HEAD CHANGE    HEAD CHANGE    HEAD CHANGE    HEAD CHANGE    HEAD CHANGE 
   LAYER,ROW,COL  LAYER,ROW,COL  LAYER,ROW,COL  LAYER,ROW,COL  LAYER,ROW,COL
 ---------------------------------------------------------------------------
  1  0.1011E-02  0  0.3246E-03  0  0.1663E-03  0  0.9053E-04  0  0.5982E-04
   ( 50,  1, 53)  ( 48,  1, 61)  ( 46,  1, 67)  ( 42,  1, 71)  ( 39,  1, 74)
  0  0.3626E-04  0 -0.2057E-04  0  0.1167E-04  0 -0.8539E-05  0 -0.6159E-05
   ( 50,  1, 72)  (  2,  1, 73)  ( 49,  1, 53)  (  1,  1, 58)  (  2,  1, 46)
  0 -0.4501E-05  0 -0.3088E-05  0 -0.1946E-05  0 -0.1265E-05  0 -0.1125E-05
   (  2,  1, 51)  (  3,  1, 42)  (  5,  1, 37)  (  6,  1, 30)  (  4,  1, 10)
  0 -0.1272E-05  0 -0.1266E-05  0 -0.1109E-05  0 -0.9425E-06  1 -0.2577E-06
   (  5,  1,  6)  (  1,  1,  8)  ( 14,  1,  2)  (  3,  1,  3)  ( 40,  1,  6)

 MAXIMUM RESIDUAL FOR EACH ITERATION (1 INDICATES THE FIRST INNER ITERATION):

    RESIDUAL       RESIDUAL       RESIDUAL       RESIDUAL       RESIDUAL    
   LAYER,ROW,COL  LAYER,ROW,COL  LAYER,ROW,COL  LAYER,ROW,COL  LAYER,ROW,COL
 ---------------------------------------------------------------------------
  1   7.298      0   4.674      0  -1.986      0  -1.246      0 -0.9211    
   ( 50,  1, 55)  ( 50,  1, 48)  ( 50,  1, 61)  ( 50,  1, 67)  ( 50,  1, 45)
  0 -0.5184      0 -0.3707      0  0.1698      0  0.1156      0  0.8631E-01
   ( 49,  1, 56)  ( 49,  1, 52)  ( 50,  1, 45)  ( 49,  1, 56)  ( 49,  1, 52)
  0  0.4853E-01  0  0.4380E-01  0 -0.3427E-01  0 -0.2860E-01  0 -0.2479E-01
   ( 46,  1, 99)  ( 42,  1, 99)  ( 47,  1, 99)  ( 44,  1, 99)  ( 40,  1, 99)
  0  0.2701E-01  0  0.2576E-01  0 -0.2258E-01  0 -0.2280E-01  1 -0.8190E-02
   ( 45,  1, 99)  ( 42,  1, 99)  ( 47,  1, 99)  ( 44,  1, 99)  ( 44,  1, 99)


 FLOW MODEL IS TRANSIENT
 FLOW MODEL CONTAINS CONSTANT-HEAD CELLS


 MAXIMUM STEPSIZE DURING WHICH ANY PARTICLE CANNOT MOVE MORE THAN ONE CELL
 =  9.440    (WHEN MIN. R.F.=1)  AT K=   1, I=   1, J=  99

 MAXIMUM STEPSIZE WHICH MEETS STABILITY CRITERION OF THE ADVECTION TERM
 (FOR PURE FINITE-DIFFERENCE OPTION, MIXELM=0) 
 =  9.207    (WHEN MIN. R.F.=1)  AT K=   1, I=   1, J=  99


 TOTAL NUMBER OF POINT SOURCES/SINKS PRESENT IN THE FLOW MODEL =       100

 MAXIMUM STEPSIZE WHICH MEETS STABILITY CRITERION OF THE SINK & SOURCE TERM
 =  122.8    (WHEN MIN. R.F.=1)  AT K=   1, I=   1, J=   1

 MAXIMUM STEPSIZE WHICH MEETS STABILITY CRITERION OF THE DISPERSION TERM
 =  2.103    (WHEN MIN. R.F.=1)  AT K=   1, I=   1, J=  99
     5 CALLS TO GCG PACKAGE FOR TRANSPORT TIME STEP  17 IN FLOW TIME STEP   1 STRESS PERIOD   5
    15 TOTAL ITERATIONS
 
 SOLVING FOR HEAD 


     2 CALLS TO PCG ROUTINE FOR TIME STEP   1 IN STRESS PERIOD    5
    20 TOTAL ITERATIONS

 MAXIMUM HEAD CHANGE FOR EACH ITERATION (1 INDICATES THE FIRST INNER ITERATION):

    HEAD CHANGE    HEAD CHANGE    HEAD CHANGE    HEAD CHANGE    HEAD CHANGE 
   LAYER,ROW,COL  LAYER,ROW,COL  LAYER,ROW,COL  LAYER,ROW,COL  LAYER,ROW,COL
 ---------------------------------------------------------------------------
  1  0.1008E-02  0  0.3233E-03  0  0.1658E-03  0  0.9037E-04  0  0.5975E-04
   ( 50,  1, 53)  ( 48,  1, 61)  ( 46,  1, 67)  ( 42,  1, 71)  ( 39,  1, 74)
  0  0.3613E-04  0 -0.2053E-04  0  0.1164E-04  0 -0.8508E-05  0 -0.6103E-05
   ( 50,  1, 72)  (  2,  1, 73)  ( 49,  1, 53)  (  1,  1, 58)  (  2,  1, 46)
  0 -0.4473E-05  0 -0.3084E-05  0 -0.1937E-05  0 -0.1257E-05  0 -0.1117E-05
   (  2,  1, 51)  (  3,  1, 42)  (  5,  1, 37)  (  5,  1, 28)  (  4,  1,  9)
  0 -0.1253E-05  0 -0.1250E-05  0 -0.1101E-05  0 -0.9377E-06  1 -0.2544E-06
   (  4,  1,  5)  (  1,  1,  8)  (  6,  1,  1)  (  2,  1,  3)  ( 40,  1,  6)

 MAXIMUM RESIDUAL FOR EACH ITERATION (1 INDICATES THE FIRST INNER ITERATION):

    RESIDUAL       RESIDUAL       RESIDUAL       RESIDUAL       RESIDUAL    
   LAYER,ROW,COL  LAYER,ROW,COL  LAYER,ROW,COL  LAYER,ROW,COL  LAYER,ROW,COL
 ---------------------------------------------------------------------------
  1   7.283      0   4.649      0  -1.981      0  -1.242      0 -0.9198    
   ( 50,  1, 55)  ( 50,  1, 47)  ( 50,  1, 61)  ( 50,  1, 67)  ( 50,  1, 45)
  0 -0.5181      0 -0.3703      0  0.1690      0  0.1154      0  0.8597E-01
   ( 49,  1, 56)  ( 49,  1, 52)  ( 50,  1, 45)  ( 49,  1, 56)  ( 49,  1, 51)
  0  0.4770E-01  0  0.4327E-01  0 -0.3382E-01  0 -0.2827E-01  0 -0.2440E-01
   ( 46,  1, 99)  ( 42,  1, 99)  ( 47,  1, 99)  ( 44,  1, 99)  ( 40,  1, 99)
  0  0.2653E-01  0  0.2537E-01  0 -0.2220E-01  0 -0.2246E-01  1 -0.8062E-02
   ( 45,  1, 99)  ( 42,  1, 99)  ( 47,  1, 99)  ( 44,  1, 99)  ( 44,  1, 99)


 FLOW MODEL IS TRANSIENT
 FLOW MODEL CONTAINS CONSTANT-HEAD CELLS


 MAXIMUM STEPSIZE DURING WHICH ANY PARTICLE CANNOT MOVE MORE THAN ONE CELL
 =  9.444    (WHEN MIN. R.F.=1)  AT K=   1, I=   1, J=  99

 MAXIMUM STEPSIZE WHICH MEETS STABILITY CRITERION OF THE ADVECTION TERM
 (FOR PURE FINITE-DIFFERENCE OPTION, MIXELM=0) 
 =  9.211    (WHEN MIN. R.F.=1)  AT K=   1, I=   1, J=  99


 TOTAL NUMBER OF POINT SOURCES/SINKS PRESENT IN THE FLOW MODEL =       100

 MAXIMUM STEPSIZE WHICH MEETS STABILITY CRITERION OF THE SINK & SOURCE TERM
 =  122.8    (WHEN MIN. R.F.=1)  AT K=   1, I=   1, J=   1

 MAXIMUM STEPSIZE WHICH MEETS STABILITY CRITERION OF THE DISPERSION TERM
 =  2.104    (WHEN MIN. R.F.=1)  AT K=   1, I=   1, J=  99
     5 CALLS TO GCG PACKAGE FOR TRANSPORT TIME STEP  18 IN FLOW TIME STEP   1 STRESS PERIOD   5
    15 TOTAL ITERATIONS
 
 SOLVING FOR HEAD 


     2 CALLS TO PCG ROUTINE FOR TIME STEP   1 IN STRESS PERIOD    5
    16 TOTAL ITERATIONS

 MAXIMUM HEAD CHANGE FOR EACH ITERATION (1 INDICATES THE FIRST INNER ITERATION):

    HEAD CHANGE    HEAD CHANGE    HEAD CHANGE    HEAD CHANGE    HEAD CHANGE 
   LAYER,ROW,COL  LAYER,ROW,COL  LAYER,ROW,COL  LAYER,ROW,COL  LAYER,ROW,COL
 ---------------------------------------------------------------------------
  1  0.1005E-02  0  0.3220E-03  0  0.1652E-03  0  0.9017E-04  0  0.5966E-04
   ( 50,  1, 53)  ( 48,  1, 61)  ( 46,  1, 67)  ( 42,  1, 70)  ( 39,  1, 74)
  0  0.3604E-04  0 -0.2048E-04  0  0.1165E-04  0 -0.8429E-05  0 -0.5953E-05
   ( 50,  1, 72)  (  2,  1, 73)  ( 49,  1, 53)  (  1,  1, 58)  (  2,  1, 46)
  0 -0.4380E-05  0 -0.2978E-05  0 -0.1821E-05  0 -0.1134E-05  0 -0.9524E-06
   (  1,  1, 49)  (  3,  1, 42)  (  5,  1, 37)  (  6,  1, 30)  (  4,  1,  9)
  1 -0.3264E-06
   (  2,  1, 87)

 MAXIMUM RESIDUAL FOR EACH ITERATION (1 INDICATES THE FIRST INNER ITERATION):

    RESIDUAL       RESIDUAL       RESIDUAL       RESIDUAL       RESIDUAL    
   LAYER,ROW,COL  LAYER,ROW,COL  LAYER,ROW,COL  LAYER,ROW,COL  LAYER,ROW,COL
 ---------------------------------------------------------------------------
  1   7.261      0   4.651      0  -1.973      0  -1.239      0 -0.9176    
   ( 50,  1, 55)  ( 50,  1, 47)  ( 50,  1, 61)  ( 50,  1, 67)  ( 50,  1, 45)
  0 -0.5159      0 -0.3702      0  0.1675      0  0.1144      0  0.8524E-01
   ( 49,  1, 56)  ( 49,  1, 52)  ( 50,  1, 44)  ( 49,  1, 56)  ( 49,  1, 51)
  0  0.4638E-01  0  0.4184E-01  0  0.3219E-01  0 -0.2606E-01  0 -0.2138E-01
   ( 46,  1, 99)  ( 42,  1, 99)  ( 38,  1, 99)  ( 44,  1, 99)  ( 40,  1, 99)
  1  0.8871E-02
   (  1,  1, 99)


 FLOW MODEL IS TRANSIENT
 FLOW MODEL CONTAINS CONSTANT-HEAD CELLS


 MAXIMUM STEPSIZE DURING WHICH ANY PARTICLE CANNOT MOVE MORE THAN ONE CELL
 =  9.448    (WHEN MIN. R.F.=1)  AT K=   1, I=   1, J=  99

 MAXIMUM STEPSIZE WHICH MEETS STABILITY CRITERION OF THE ADVECTION TERM
 (FOR PURE FINITE-DIFFERENCE OPTION, MIXELM=0) 
 =  9.215    (WHEN MIN. R.F.=1)  AT K=   1, I=   1, J=  99


 TOTAL NUMBER OF POINT SOURCES/SINKS PRESENT IN THE FLOW MODEL =       100

 MAXIMUM STEPSIZE WHICH MEETS STABILITY CRITERION OF THE SINK & SOURCE TERM
 =  122.8    (WHEN MIN. R.F.=1)  AT K=   1, I=   1, J=   1

 MAXIMUM STEPSIZE WHICH MEETS STABILITY CRITERION OF THE DISPERSION TERM
 =  2.104    (WHEN MIN. R.F.=1)  AT K=   1, I=   1, J=  99
     5 CALLS TO GCG PACKAGE FOR TRANSPORT TIME STEP  19 IN FLOW TIME STEP   1 STRESS PERIOD   5
    15 TOTAL ITERATIONS
 
 SOLVING FOR HEAD 


     2 CALLS TO PCG ROUTINE FOR TIME STEP   1 IN STRESS PERIOD    5
    20 TOTAL ITERATIONS

 MAXIMUM HEAD CHANGE FOR EACH ITERATION (1 INDICATES THE FIRST INNER ITERATION):

    HEAD CHANGE    HEAD CHANGE    HEAD CHANGE    HEAD CHANGE    HEAD CHANGE 
   LAYER,ROW,COL  LAYER,ROW,COL  LAYER,ROW,COL  LAYER,ROW,COL  LAYER,ROW,COL
 ---------------------------------------------------------------------------
  1  0.1001E-02  0  0.3206E-03  0  0.1648E-03  0  0.9018E-04  0  0.5977E-04
   ( 50,  1, 53)  ( 48,  1, 61)  ( 46,  1, 66)  ( 42,  1, 70)  ( 39,  1, 73)
  0  0.3583E-04  0 -0.2021E-04  0  0.1150E-04  0 -0.8361E-05  0 -0.6078E-05
   ( 50,  1, 72)  (  2,  1, 73)  ( 49,  1, 53)  (  1,  1, 58)  (  2,  1, 45)
  0 -0.4611E-05  0 -0.3186E-05  0 -0.2017E-05  0 -0.1326E-05  0 -0.1205E-05
   (  1,  1, 49)  (  3,  1, 42)  (  4,  1, 35)  (  4,  1, 26)  (  4,  1,  9)
  0 -0.1360E-05  0 -0.1356E-05  0 -0.1181E-05  0 -0.9625E-06  1 -0.2697E-06
   (  5,  1,  5)  (  1,  1,  8)  (  7,  1,  1)  (  4,  1,  4)  ( 41,  1,  6)

 MAXIMUM RESIDUAL FOR EACH ITERATION (1 INDICATES THE FIRST INNER ITERATION):

    RESIDUAL       RESIDUAL       RESIDUAL       RESIDUAL       RESIDUAL    
   LAYER,ROW,COL  LAYER,ROW,COL  LAYER,ROW,COL  LAYER,ROW,COL  LAYER,ROW,COL
 ---------------------------------------------------------------------------
  1   7.239      0   4.652      0  -1.965      0  -1.233      0 -0.9162    
   ( 50,  1, 55)  ( 50,  1, 47)  ( 50,  1, 61)  ( 50,  1, 67)  ( 50,  1, 45)
  0 -0.5159      0 -0.3703      0  0.1700      0  0.1153      0  0.8720E-01
   ( 49,  1, 56)  ( 49,  1, 52)  ( 50,  1, 44)  ( 49,  1, 56)  ( 49,  1, 51)
  0  0.4664E-01  0  0.4292E-01  0  0.3401E-01  0 -0.2885E-01  0 -0.2556E-01
   ( 46,  1, 99)  ( 42,  1, 99)  ( 38,  1, 99)  ( 44,  1, 99)  ( 40,  1, 99)
  0  0.2836E-01  0  0.2716E-01  0 -0.2347E-01  0 -0.2349E-01  1 -0.8571E-02
   ( 45,  1, 99)  ( 42,  1, 99)  ( 47,  1, 99)  ( 44,  1, 99)  ( 44,  1, 99)


 FLOW MODEL IS TRANSIENT
 FLOW MODEL CONTAINS CONSTANT-HEAD CELLS


 MAXIMUM STEPSIZE DURING WHICH ANY PARTICLE CANNOT MOVE MORE THAN ONE CELL
 =  9.452    (WHEN MIN. R.F.=1)  AT K=   1, I=   1, J=  99

 MAXIMUM STEPSIZE WHICH MEETS STABILITY CRITERION OF THE ADVECTION TERM
 (FOR PURE FINITE-DIFFERENCE OPTION, MIXELM=0) 
 =  9.219    (WHEN MIN. R.F.=1)  AT K=   1, I=   1, J=  99


 TOTAL NUMBER OF POINT SOURCES/SINKS PRESENT IN THE FLOW MODEL =       100

 MAXIMUM STEPSIZE WHICH MEETS STABILITY CRITERION OF THE SINK & SOURCE TERM
 =  122.8    (WHEN MIN. R.F.=1)  AT K=   1, I=   1, J=   1

 MAXIMUM STEPSIZE WHICH MEETS STABILITY CRITERION OF THE DISPERSION TERM
 =  2.105    (WHEN MIN. R.F.=1)  AT K=   1, I=   1, J=  99
     5 CALLS TO GCG PACKAGE FOR TRANSPORT TIME STEP  20 IN FLOW TIME STEP   1 STRESS PERIOD   5
    15 TOTAL ITERATIONS
 
 SOLVING FOR HEAD 


     2 CALLS TO PCG ROUTINE FOR TIME STEP   1 IN STRESS PERIOD    5
    20 TOTAL ITERATIONS

 MAXIMUM HEAD CHANGE FOR EACH ITERATION (1 INDICATES THE FIRST INNER ITERATION):

    HEAD CHANGE    HEAD CHANGE    HEAD CHANGE    HEAD CHANGE    HEAD CHANGE 
   LAYER,ROW,COL  LAYER,ROW,COL  LAYER,ROW,COL  LAYER,ROW,COL  LAYER,ROW,COL
 ---------------------------------------------------------------------------
  1  0.9976E-03  0  0.3190E-03  0  0.1640E-03  0  0.8969E-04  0  0.5944E-04
   ( 50,  1, 53)  ( 48,  1, 61)  ( 46,  1, 66)  ( 42,  1, 70)  ( 39,  1, 74)
  0  0.3580E-04  0 -0.2058E-04  0  0.1155E-04  0 -0.8507E-05  0 -0.5914E-05
   ( 50,  1, 71)  (  2,  1, 73)  ( 49,  1, 53)  (  1,  1, 58)  (  2,  1, 45)
  0 -0.4440E-05  0 -0.3090E-05  0 -0.1926E-05  0 -0.1242E-05  0 -0.1096E-05
   (  1,  1, 49)  (  3,  1, 42)  (  4,  1, 35)  (  5,  1, 28)  (  4,  1,  9)
  0 -0.1203E-05  0 -0.1202E-05  0 -0.1083E-05  0 -0.9266E-06  1 -0.2484E-06
   (  5,  1,  5)  (  1,  1,  8)  (  6,  1,  1)  (  2,  1,  3)  ( 41,  1,  6)

 MAXIMUM RESIDUAL FOR EACH ITERATION (1 INDICATES THE FIRST INNER ITERATION):

    RESIDUAL       RESIDUAL       RESIDUAL       RESIDUAL       RESIDUAL    
   LAYER,ROW,COL  LAYER,ROW,COL  LAYER,ROW,COL  LAYER,ROW,COL  LAYER,ROW,COL
 ---------------------------------------------------------------------------
  1   7.212      0   4.645      0  -1.956      0  -1.233      0 -0.9139    
   ( 50,  1, 55)  ( 50,  1, 47)  ( 50,  1, 61)  ( 50,  1, 67)  ( 50,  1, 45)
  0 -0.5129      0 -0.3684      0  0.1680      0  0.1142      0  0.8546E-01
   ( 49,  1, 56)  ( 49,  1, 52)  ( 50,  1, 44)  ( 49,  1, 56)  ( 49,  1, 51)
  0  0.4545E-01  0  0.4164E-01  0  0.3273E-01  0 -0.2723E-01  0 -0.2339E-01
   ( 46,  1, 99)  ( 42,  1, 99)  ( 38,  1, 99)  ( 44,  1, 99)  ( 40,  1, 99)
  0  0.2513E-01  0  0.2422E-01  0 -0.2107E-01  0 -0.2146E-01  1 -0.7658E-02
   ( 45,  1, 99)  ( 42,  1, 99)  ( 47,  1, 99)  ( 44,  1, 99)  ( 44,  1, 99)


 FLOW MODEL IS TRANSIENT
 FLOW MODEL CONTAINS CONSTANT-HEAD CELLS


 MAXIMUM STEPSIZE DURING WHICH ANY PARTICLE CANNOT MOVE MORE THAN ONE CELL
 =  9.456    (WHEN MIN. R.F.=1)  AT K=   1, I=   1, J=  99

 MAXIMUM STEPSIZE WHICH MEETS STABILITY CRITERION OF THE ADVECTION TERM
 (FOR PURE FINITE-DIFFERENCE OPTION, MIXELM=0) 
 =  9.222    (WHEN MIN. R.F.=1)  AT K=   1, I=   1, J=  99


 TOTAL NUMBER OF POINT SOURCES/SINKS PRESENT IN THE FLOW MODEL =       100

 MAXIMUM STEPSIZE WHICH MEETS STABILITY CRITERION OF THE SINK & SOURCE TERM
 =  122.8    (WHEN MIN. R.F.=1)  AT K=   1, I=   1, J=   1

 MAXIMUM STEPSIZE WHICH MEETS STABILITY CRITERION OF THE DISPERSION TERM
 =  2.106    (WHEN MIN. R.F.=1)  AT K=   1, I=   1, J=  99
     5 CALLS TO GCG PACKAGE FOR TRANSPORT TIME STEP  21 IN FLOW TIME STEP   1 STRESS PERIOD   5
    15 TOTAL ITERATIONS
 
 SOLVING FOR HEAD 


     2 CALLS TO PCG ROUTINE FOR TIME STEP   1 IN STRESS PERIOD    5
    20 TOTAL ITERATIONS

 MAXIMUM HEAD CHANGE FOR EACH ITERATION (1 INDICATES THE FIRST INNER ITERATION):

    HEAD CHANGE    HEAD CHANGE    HEAD CHANGE    HEAD CHANGE    HEAD CHANGE 
   LAYER,ROW,COL  LAYER,ROW,COL  LAYER,ROW,COL  LAYER,ROW,COL  LAYER,ROW,COL
 ---------------------------------------------------------------------------
  1  0.9938E-03  0  0.3176E-03  0  0.1635E-03  0  0.8942E-04  0  0.5929E-04
   ( 50,  1, 53)  ( 48,  1, 61)  ( 46,  1, 66)  ( 42,  1, 70)  ( 39,  1, 73)
  0  0.3577E-04  0 -0.2034E-04  0 -0.1152E-04  0 -0.8380E-05  0 -0.5905E-05
   ( 50,  1, 71)  (  2,  1, 73)  (  1,  1, 77)  (  1,  1, 57)  (  2,  1, 45)
  0 -0.4398E-05  0 -0.3039E-05  0 -0.1885E-05  0 -0.1203E-05  0 -0.1051E-05
   (  2,  1, 50)  (  3,  1, 41)  (  5,  1, 36)  (  5,  1, 28)  (  4,  1,  9)
  0 -0.1141E-05  0 -0.1139E-05  0 -0.1034E-05  0 -0.9020E-06  1 -0.2405E-06
   (  5,  1,  5)  (  1,  1,  8)  (  6,  1,  1)  (  2,  1,  3)  ( 41,  1,  6)

 MAXIMUM RESIDUAL FOR EACH ITERATION (1 INDICATES THE FIRST INNER ITERATION):

    RESIDUAL       RESIDUAL       RESIDUAL       RESIDUAL       RESIDUAL    
   LAYER,ROW,COL  LAYER,ROW,COL  LAYER,ROW,COL  LAYER,ROW,COL  LAYER,ROW,COL
 ---------------------------------------------------------------------------
  1   7.181      0   4.632      0  -1.950      0  -1.229      0 -0.9129    
   ( 50,  1, 55)  ( 50,  1, 47)  ( 50,  1, 60)  ( 50,  1, 67)  ( 50,  1, 44)
  0 -0.5116      0 -0.3676      0  0.1684      0  0.1138      0  0.8518E-01
   ( 49,  1, 55)  ( 49,  1, 52)  ( 50,  1, 44)  ( 49,  1, 56)  ( 49,  1, 51)
  0  0.4534E-01  0  0.4086E-01  0  0.3211E-01  0 -0.2648E-01  0  0.2253E-01
   ( 49,  1, 43)  ( 42,  1, 99)  ( 38,  1, 99)  ( 44,  1, 99)  (  1,  1, 99)
  0  0.2374E-01  0  0.2287E-01  0 -0.1988E-01  0 -0.2046E-01  1 -0.7269E-02
   ( 45,  1, 99)  ( 42,  1, 99)  ( 47,  1, 99)  ( 44,  1, 99)  ( 44,  1, 99)


 FLOW MODEL IS TRANSIENT
 FLOW MODEL CONTAINS CONSTANT-HEAD CELLS


 MAXIMUM STEPSIZE DURING WHICH ANY PARTICLE CANNOT MOVE MORE THAN ONE CELL
 =  9.460    (WHEN MIN. R.F.=1)  AT K=   1, I=   1, J=  99

 MAXIMUM STEPSIZE WHICH MEETS STABILITY CRITERION OF THE ADVECTION TERM
 (FOR PURE FINITE-DIFFERENCE OPTION, MIXELM=0) 
 =  9.226    (WHEN MIN. R.F.=1)  AT K=   1, I=   1, J=  99


 TOTAL NUMBER OF POINT SOURCES/SINKS PRESENT IN THE FLOW MODEL =       100

 MAXIMUM STEPSIZE WHICH MEETS STABILITY CRITERION OF THE SINK & SOURCE TERM
 =  122.8    (WHEN MIN. R.F.=1)  AT K=   1, I=   1, J=   1

 MAXIMUM STEPSIZE WHICH MEETS STABILITY CRITERION OF THE DISPERSION TERM
 =  2.107    (WHEN MIN. R.F.=1)  AT K=   1, I=   1, J=  99
     5 CALLS TO GCG PACKAGE FOR TRANSPORT TIME STEP  22 IN FLOW TIME STEP   1 STRESS PERIOD   5
    15 TOTAL ITERATIONS
 
 SOLVING FOR HEAD 


     2 CALLS TO PCG ROUTINE FOR TIME STEP   1 IN STRESS PERIOD    5
    20 TOTAL ITERATIONS

 MAXIMUM HEAD CHANGE FOR EACH ITERATION (1 INDICATES THE FIRST INNER ITERATION):

    HEAD CHANGE    HEAD CHANGE    HEAD CHANGE    HEAD CHANGE    HEAD CHANGE 
   LAYER,ROW,COL  LAYER,ROW,COL  LAYER,ROW,COL  LAYER,ROW,COL  LAYER,ROW,COL
 ---------------------------------------------------------------------------
  1  0.9896E-03  0  0.3159E-03  0  0.1629E-03  0  0.8918E-04  0  0.5927E-04
   ( 50,  1, 53)  ( 48,  1, 61)  ( 46,  1, 66)  ( 42,  1, 70)  ( 39,  1, 73)
  0  0.3570E-04  0 -0.2048E-04  0 -0.1156E-04  0 -0.8399E-05  0 -0.5853E-05
   ( 50,  1, 71)  (  2,  1, 73)  (  1,  1, 77)  (  1,  1, 57)  (  2,  1, 45)
  0 -0.4405E-05  0 -0.3050E-05  0 -0.1882E-05  0 -0.1198E-05  0 -0.1039E-05
   (  2,  1, 50)  (  3,  1, 41)  (  5,  1, 36)  (  5,  1, 27)  (  4,  1,  9)
  0 -0.1125E-05  0 -0.1126E-05  0 -0.1028E-05  0 -0.8997E-06  1 -0.2381E-06
   (  5,  1,  5)  (  1,  1,  8)  (  6,  1,  1)  (  2,  1,  3)  ( 41,  1,  6)

 MAXIMUM RESIDUAL FOR EACH ITERATION (1 INDICATES THE FIRST INNER ITERATION):

    RESIDUAL       RESIDUAL       RESIDUAL       RESIDUAL       RESIDUAL    
   LAYER,ROW,COL  LAYER,ROW,COL  LAYER,ROW,COL  LAYER,ROW,COL  LAYER,ROW,COL
 ---------------------------------------------------------------------------
  1   7.150      0   4.610      0  -1.947      0  -1.228      0 -0.9128    
   ( 50,  1, 55)  ( 50,  1, 47)  ( 50,  1, 60)  ( 50,  1, 66)  ( 50,  1, 44)
  0 -0.5121      0 -0.3656      0  0.1686      0  0.1133      0  0.8502E-01
   ( 49,  1, 55)  ( 49,  1, 52)  ( 50,  1, 44)  ( 49,  1, 56)  ( 49,  1, 51)
  0  0.4522E-01  0  0.4043E-01  0  0.3174E-01  0 -0.2617E-01  0  0.2229E-01
   ( 49,  1, 43)  ( 43,  1, 99)  ( 38,  1, 99)  ( 44,  1, 99)  (  1,  1, 99)
  0  0.2325E-01  0  0.2250E-01  0 -0.1954E-01  0 -0.2014E-01  1 -0.7089E-02
   ( 45,  1, 99)  ( 42,  1, 99)  ( 47,  1, 99)  ( 44,  1, 99)  ( 44,  1, 99)


 FLOW MODEL IS TRANSIENT
 FLOW MODEL CONTAINS CONSTANT-HEAD CELLS


 MAXIMUM STEPSIZE DURING WHICH ANY PARTICLE CANNOT MOVE MORE THAN ONE CELL
 =  9.464    (WHEN MIN. R.F.=1)  AT K=   1, I=   1, J=  99

 MAXIMUM STEPSIZE WHICH MEETS STABILITY CRITERION OF THE ADVECTION TERM
 (FOR PURE FINITE-DIFFERENCE OPTION, MIXELM=0) 
 =  9.230    (WHEN MIN. R.F.=1)  AT K=   1, I=   1, J=  99


 TOTAL NUMBER OF POINT SOURCES/SINKS PRESENT IN THE FLOW MODEL =       100

 MAXIMUM STEPSIZE WHICH MEETS STABILITY CRITERION OF THE SINK & SOURCE TERM
 =  122.8    (WHEN MIN. R.F.=1)  AT K=   1, I=   1, J=   1

 MAXIMUM STEPSIZE WHICH MEETS STABILITY CRITERION OF THE DISPERSION TERM
 =  2.108    (WHEN MIN. R.F.=1)  AT K=   1, I=   1, J=  99
     5 CALLS TO GCG PACKAGE FOR TRANSPORT TIME STEP  23 IN FLOW TIME STEP   1 STRESS PERIOD   5
    15 TOTAL ITERATIONS
 
 SOLVING FOR HEAD 


     2 CALLS TO PCG ROUTINE FOR TIME STEP   1 IN STRESS PERIOD    5
    20 TOTAL ITERATIONS

 MAXIMUM HEAD CHANGE FOR EACH ITERATION (1 INDICATES THE FIRST INNER ITERATION):

    HEAD CHANGE    HEAD CHANGE    HEAD CHANGE    HEAD CHANGE    HEAD CHANGE 
   LAYER,ROW,COL  LAYER,ROW,COL  LAYER,ROW,COL  LAYER,ROW,COL  LAYER,ROW,COL
 ---------------------------------------------------------------------------
  1  0.9852E-03  0  0.3148E-03  0  0.1624E-03  0  0.8883E-04  0  0.5905E-04
   ( 50,  1, 53)  ( 48,  1, 60)  ( 46,  1, 66)  ( 42,  1, 70)  ( 39,  1, 73)
  0  0.3562E-04  0 -0.2039E-04  0 -0.1156E-04  0 -0.8404E-05  0 -0.5934E-05
   ( 50,  1, 71)  (  2,  1, 73)  (  1,  1, 77)  (  1,  1, 57)  (  2,  1, 45)
  0 -0.4494E-05  0 -0.3152E-05  0 -0.1993E-05  0 -0.1318E-05  0 -0.1208E-05
   (  2,  1, 50)  (  3,  1, 41)  (  5,  1, 36)  (  5,  1, 27)  (  4,  1,  8)
  0 -0.1344E-05  0 -0.1342E-05  0 -0.1183E-05  0 -0.9599E-06  1 -0.2667E-06
   (  5,  1,  5)  (  1,  1,  8)  (  7,  1,  2)  (  2,  1,  3)  ( 41,  1,  6)

 MAXIMUM RESIDUAL FOR EACH ITERATION (1 INDICATES THE FIRST INNER ITERATION):

    RESIDUAL       RESIDUAL       RESIDUAL       RESIDUAL       RESIDUAL    
   LAYER,ROW,COL  LAYER,ROW,COL  LAYER,ROW,COL  LAYER,ROW,COL  LAYER,ROW,COL
 ---------------------------------------------------------------------------
  1   7.129      0   4.582      0  -1.945      0  -1.227      0 -0.9129    
   ( 50,  1, 54)  ( 50,  1, 47)  ( 49,  1, 46)  ( 50,  1, 66)  ( 50,  1, 44)
  0 -0.5118      0 -0.3652      0  0.1683      0  0.1135      0  0.8524E-01
   ( 49,  1, 55)  ( 49,  1, 51)  ( 50,  1, 44)  ( 49,  1, 55)  ( 49,  1, 51)
  0  0.4563E-01  0  0.4079E-01  0  0.3275E-01  0 -0.2781E-01  0  0.2498E-01
   ( 49,  1, 43)  ( 43,  1, 99)  ( 38,  1, 99)  ( 44,  1, 99)  (  1,  1, 99)
  0  0.2707E-01  0  0.2645E-01  0 -0.2272E-01  0 -0.2279E-01  1 -0.8078E-02
   ( 45,  1, 99)  ( 42,  1, 99)  ( 47,  1, 99)  ( 44,  1, 99)  ( 44,  1, 99)


 FLOW MODEL IS TRANSIENT
 FLOW MODEL CONTAINS CONSTANT-HEAD CELLS


 MAXIMUM STEPSIZE DURING WHICH ANY PARTICLE CANNOT MOVE MORE THAN ONE CELL
 =  9.468    (WHEN MIN. R.F.=1)  AT K=   1, I=   1, J=  99

 MAXIMUM STEPSIZE WHICH MEETS STABILITY CRITERION OF THE ADVECTION TERM
 (FOR PURE FINITE-DIFFERENCE OPTION, MIXELM=0) 
 =  9.233    (WHEN MIN. R.F.=1)  AT K=   1, I=   1, J=  99


 TOTAL NUMBER OF POINT SOURCES/SINKS PRESENT IN THE FLOW MODEL =       100

 MAXIMUM STEPSIZE WHICH MEETS STABILITY CRITERION OF THE SINK & SOURCE TERM
 =  122.8    (WHEN MIN. R.F.=1)  AT K=   1, I=   1, J=   1

 MAXIMUM STEPSIZE WHICH MEETS STABILITY CRITERION OF THE DISPERSION TERM
 =  2.109    (WHEN MIN. R.F.=1)  AT K=   1, I=   1, J=  99
     5 CALLS TO GCG PACKAGE FOR TRANSPORT TIME STEP  24 IN FLOW TIME STEP   1 STRESS PERIOD   5
    15 TOTAL ITERATIONS
 
 SOLVING FOR HEAD 


     2 CALLS TO PCG ROUTINE FOR TIME STEP   1 IN STRESS PERIOD    5
    20 TOTAL ITERATIONS

 MAXIMUM HEAD CHANGE FOR EACH ITERATION (1 INDICATES THE FIRST INNER ITERATION):

    HEAD CHANGE    HEAD CHANGE    HEAD CHANGE    HEAD CHANGE    HEAD CHANGE 
   LAYER,ROW,COL  LAYER,ROW,COL  LAYER,ROW,COL  LAYER,ROW,COL  LAYER,ROW,COL
 ---------------------------------------------------------------------------
  1  0.9824E-03  0  0.3136E-03  0  0.1619E-03  0  0.8861E-04  0  0.5903E-04
   ( 50,  1, 52)  ( 48,  1, 60)  ( 46,  1, 66)  ( 42,  1, 70)  ( 39,  1, 73)
  0  0.3549E-04  0 -0.2042E-04  0 -0.1155E-04  0 -0.8411E-05  0 -0.5826E-05
   ( 50,  1, 71)  (  2,  1, 73)  (  1,  1, 77)  (  1,  1, 57)  (  2,  1, 45)
  0 -0.4468E-05  0 -0.3152E-05  0 -0.1981E-05  0 -0.1303E-05  0 -0.1181E-05
   (  1,  1, 48)  (  3,  1, 41)  (  4,  1, 34)  (  5,  1, 27)  (  4,  1,  8)
  0 -0.1304E-05  0 -0.1304E-05  0 -0.1163E-05  0 -0.9521E-06  1 -0.2612E-06
   (  5,  1,  5)  (  1,  1,  8)  (  7,  1,  2)  (  3,  1,  4)  ( 41,  1,  6)

 MAXIMUM RESIDUAL FOR EACH ITERATION (1 INDICATES THE FIRST INNER ITERATION):

    RESIDUAL       RESIDUAL       RESIDUAL       RESIDUAL       RESIDUAL    
   LAYER,ROW,COL  LAYER,ROW,COL  LAYER,ROW,COL  LAYER,ROW,COL  LAYER,ROW,COL
 ---------------------------------------------------------------------------
  1   7.114      0   4.548      0  -1.942      0  -1.224      0 -0.9117    
   ( 50,  1, 54)  ( 50,  1, 47)  ( 49,  1, 46)  ( 50,  1, 66)  ( 50,  1, 44)
  0 -0.5112      0 -0.3651      0  0.1678      0  0.1131      0  0.8472E-01
   ( 49,  1, 55)  ( 49,  1, 51)  ( 50,  1, 44)  ( 49,  1, 55)  ( 49,  1, 51)
  0 -0.4539E-01  0  0.4040E-01  0  0.3225E-01  0 -0.2724E-01  0  0.2447E-01
   ( 49,  1, 63)  ( 43,  1, 99)  ( 38,  1, 99)  ( 44,  1, 99)  (  1,  1, 99)
  0  0.2622E-01  0  0.2561E-01  0 -0.2204E-01  0 -0.2221E-01  1 -0.7878E-02
   ( 45,  1, 99)  ( 42,  1, 99)  ( 47,  1, 99)  ( 44,  1, 99)  ( 44,  1, 99)


 FLOW MODEL IS TRANSIENT
 FLOW MODEL CONTAINS CONSTANT-HEAD CELLS


 MAXIMUM STEPSIZE DURING WHICH ANY PARTICLE CANNOT MOVE MORE THAN ONE CELL
 =  9.471    (WHEN MIN. R.F.=1)  AT K=   1, I=   1, J=  99

 MAXIMUM STEPSIZE WHICH MEETS STABILITY CRITERION OF THE ADVECTION TERM
 (FOR PURE FINITE-DIFFERENCE OPTION, MIXELM=0) 
 =  9.237    (WHEN MIN. R.F.=1)  AT K=   1, I=   1, J=  99


 TOTAL NUMBER OF POINT SOURCES/SINKS PRESENT IN THE FLOW MODEL =       100

 MAXIMUM STEPSIZE WHICH MEETS STABILITY CRITERION OF THE SINK & SOURCE TERM
 =  122.8    (WHEN MIN. R.F.=1)  AT K=   1, I=   1, J=   1

 MAXIMUM STEPSIZE WHICH MEETS STABILITY CRITERION OF THE DISPERSION TERM
 =  2.110    (WHEN MIN. R.F.=1)  AT K=   1, I=   1, J=  99
     5 CALLS TO GCG PACKAGE FOR TRANSPORT TIME STEP  25 IN FLOW TIME STEP   1 STRESS PERIOD   5
    15 TOTAL ITERATIONS
 
 SOLVING FOR HEAD 


     2 CALLS TO PCG ROUTINE FOR TIME STEP   1 IN STRESS PERIOD    5
    20 TOTAL ITERATIONS

 MAXIMUM HEAD CHANGE FOR EACH ITERATION (1 INDICATES THE FIRST INNER ITERATION):

    HEAD CHANGE    HEAD CHANGE    HEAD CHANGE    HEAD CHANGE    HEAD CHANGE 
   LAYER,ROW,COL  LAYER,ROW,COL  LAYER,ROW,COL  LAYER,ROW,COL  LAYER,ROW,COL
 ---------------------------------------------------------------------------
  1  0.9797E-03  0  0.3123E-03  0  0.1613E-03  0  0.8833E-04  0  0.5888E-04
   ( 50,  1, 52)  ( 48,  1, 60)  ( 46,  1, 66)  ( 43,  1, 71)  ( 39,  1, 73)
  0  0.3541E-04  0 -0.2035E-04  0 -0.1155E-04  0 -0.8366E-05  0 -0.5776E-05
   ( 50,  1, 71)  (  2,  1, 73)  (  1,  1, 77)  (  1,  1, 57)  (  2,  1, 45)
  0 -0.4437E-05  0 -0.3120E-05  0 -0.1952E-05  0 -0.1272E-05  0 -0.1143E-05
   (  1,  1, 48)  (  3,  1, 41)  (  4,  1, 34)  (  5,  1, 27)  (  4,  1,  8)
  0 -0.1247E-05  0 -0.1253E-05  0 -0.1127E-05  0 -0.9359E-06  1 -0.2561E-06
   (  5,  1,  5)  (  1,  1,  8)  (  7,  1,  2)  (  3,  1,  4)  ( 41,  1,  6)

 MAXIMUM RESIDUAL FOR EACH ITERATION (1 INDICATES THE FIRST INNER ITERATION):

    RESIDUAL       RESIDUAL       RESIDUAL       RESIDUAL       RESIDUAL    
   LAYER,ROW,COL  LAYER,ROW,COL  LAYER,ROW,COL  LAYER,ROW,COL  LAYER,ROW,COL
 ---------------------------------------------------------------------------
  1   7.096      0   4.527      0  -1.933      0  -1.222      0 -0.9104    
   ( 50,  1, 54)  ( 50,  1, 46)  ( 50,  1, 60)  ( 50,  1, 66)  ( 50,  1, 44)
  0 -0.5100      0 -0.3649      0  0.1670      0  0.1127      0  0.8417E-01
   ( 49,  1, 55)  ( 49,  1, 51)  ( 50,  1, 44)  ( 49,  1, 55)  ( 49,  1, 50)
  0 -0.4518E-01  0  0.3985E-01  0  0.3166E-01  0 -0.2661E-01  0  0.2371E-01
   ( 49,  1, 63)  ( 43,  1, 99)  ( 38,  1, 99)  ( 44,  1, 99)  (  1,  1, 99)
  0  0.2502E-01  0  0.2452E-01  0 -0.2113E-01  0 -0.2145E-01  1 -0.7575E-02
   ( 45,  1, 99)  ( 42,  1, 99)  ( 47,  1, 99)  ( 44,  1, 99)  ( 44,  1, 99)


 FLOW MODEL IS TRANSIENT
 FLOW MODEL CONTAINS CONSTANT-HEAD CELLS


 MAXIMUM STEPSIZE DURING WHICH ANY PARTICLE CANNOT MOVE MORE THAN ONE CELL
 =  9.475    (WHEN MIN. R.F.=1)  AT K=   1, I=   1, J=  99

 MAXIMUM STEPSIZE WHICH MEETS STABILITY CRITERION OF THE ADVECTION TERM
 (FOR PURE FINITE-DIFFERENCE OPTION, MIXELM=0) 
 =  9.241    (WHEN MIN. R.F.=1)  AT K=   1, I=   1, J=  99


 TOTAL NUMBER OF POINT SOURCES/SINKS PRESENT IN THE FLOW MODEL =       100

 MAXIMUM STEPSIZE WHICH MEETS STABILITY CRITERION OF THE SINK & SOURCE TERM
 =  122.8    (WHEN MIN. R.F.=1)  AT K=   1, I=   1, J=   1

 MAXIMUM STEPSIZE WHICH MEETS STABILITY CRITERION OF THE DISPERSION TERM
 =  2.110    (WHEN MIN. R.F.=1)  AT K=   1, I=   1, J=  99
     5 CALLS TO GCG PACKAGE FOR TRANSPORT TIME STEP  26 IN FLOW TIME STEP   1 STRESS PERIOD   5
    15 TOTAL ITERATIONS
 
 SOLVING FOR HEAD 


     2 CALLS TO PCG ROUTINE FOR TIME STEP   1 IN STRESS PERIOD    5
    20 TOTAL ITERATIONS

 MAXIMUM HEAD CHANGE FOR EACH ITERATION (1 INDICATES THE FIRST INNER ITERATION):

    HEAD CHANGE    HEAD CHANGE    HEAD CHANGE    HEAD CHANGE    HEAD CHANGE 
   LAYER,ROW,COL  LAYER,ROW,COL  LAYER,ROW,COL  LAYER,ROW,COL  LAYER,ROW,COL
 ---------------------------------------------------------------------------
  1  0.9766E-03  0  0.3109E-03  0  0.1606E-03  0  0.8804E-04  0  0.5877E-04
   ( 50,  1, 52)  ( 48,  1, 60)  ( 46,  1, 66)  ( 42,  1, 69)  ( 39,  1, 73)
  0  0.3530E-04  0 -0.2029E-04  0 -0.1155E-04  0 -0.8308E-05  0 -0.5685E-05
   ( 50,  1, 71)  (  2,  1, 73)  (  1,  1, 77)  (  1,  1, 57)  (  2,  1, 44)
  0 -0.4363E-05  0 -0.3042E-05  0 -0.1872E-05  0 -0.1190E-05  0 -0.1037E-05
   (  1,  1, 48)  (  3,  1, 41)  (  4,  1, 34)  (  5,  1, 27)  (  4,  1,  8)
  0 -0.1103E-05  0 -0.1110E-05  0 -0.1020E-05  0 -0.8860E-06  1 -0.2347E-06
   (  5,  1,  5)  (  1,  1,  8)  (  7,  1,  2)  (  2,  1,  3)  ( 41,  1,  6)

 MAXIMUM RESIDUAL FOR EACH ITERATION (1 INDICATES THE FIRST INNER ITERATION):

    RESIDUAL       RESIDUAL       RESIDUAL       RESIDUAL       RESIDUAL    
   LAYER,ROW,COL  LAYER,ROW,COL  LAYER,ROW,COL  LAYER,ROW,COL  LAYER,ROW,COL
 ---------------------------------------------------------------------------
  1   7.075      0   4.534      0  -1.926      0  -1.219      0 -0.9082    
   ( 50,  1, 54)  ( 50,  1, 46)  ( 50,  1, 60)  ( 50,  1, 66)  ( 50,  1, 44)
  0 -0.5087      0 -0.3646      0  0.1657      0  0.1121      0  0.8376E-01
   ( 49,  1, 55)  ( 49,  1, 51)  ( 50,  1, 44)  ( 49,  1, 55)  ( 49,  1, 50)
  0 -0.4469E-01  0  0.3896E-01  0  0.3073E-01  0 -0.2514E-01  0  0.2182E-01
   ( 49,  1, 63)  ( 43,  1, 99)  ( 39,  1, 99)  ( 44,  1, 99)  (  1,  1, 99)
  0  0.2220E-01  0  0.2175E-01  0 -0.1879E-01  0 -0.1942E-01  1 -0.6797E-02
   ( 45,  1, 99)  ( 42,  1, 99)  ( 47,  1, 99)  ( 44,  1, 99)  ( 44,  1, 99)


 FLOW MODEL IS TRANSIENT
 FLOW MODEL CONTAINS CONSTANT-HEAD CELLS


 MAXIMUM STEPSIZE DURING WHICH ANY PARTICLE CANNOT MOVE MORE THAN ONE CELL
 =  9.479    (WHEN MIN. R.F.=1)  AT K=   1, I=   1, J=  99

 MAXIMUM STEPSIZE WHICH MEETS STABILITY CRITERION OF THE ADVECTION TERM
 (FOR PURE FINITE-DIFFERENCE OPTION, MIXELM=0) 
 =  9.244    (WHEN MIN. R.F.=1)  AT K=   1, I=   1, J=  99


 TOTAL NUMBER OF POINT SOURCES/SINKS PRESENT IN THE FLOW MODEL =       100

 MAXIMUM STEPSIZE WHICH MEETS STABILITY CRITERION OF THE SINK & SOURCE TERM
 =  122.8    (WHEN MIN. R.F.=1)  AT K=   1, I=   1, J=   1

 MAXIMUM STEPSIZE WHICH MEETS STABILITY CRITERION OF THE DISPERSION TERM
 =  2.111    (WHEN MIN. R.F.=1)  AT K=   1, I=   1, J=  99
     5 CALLS TO GCG PACKAGE FOR TRANSPORT TIME STEP  27 IN FLOW TIME STEP   1 STRESS PERIOD   5
    15 TOTAL ITERATIONS
 
 SOLVING FOR HEAD 


     2 CALLS TO PCG ROUTINE FOR TIME STEP   1 IN STRESS PERIOD    5
    20 TOTAL ITERATIONS

 MAXIMUM HEAD CHANGE FOR EACH ITERATION (1 INDICATES THE FIRST INNER ITERATION):

    HEAD CHANGE    HEAD CHANGE    HEAD CHANGE    HEAD CHANGE    HEAD CHANGE 
   LAYER,ROW,COL  LAYER,ROW,COL  LAYER,ROW,COL  LAYER,ROW,COL  LAYER,ROW,COL
 ---------------------------------------------------------------------------
  1  0.9733E-03  0  0.3097E-03  0  0.1602E-03  0  0.8792E-04  0  0.5876E-04
   ( 50,  1, 52)  ( 48,  1, 60)  ( 46,  1, 65)  ( 42,  1, 69)  ( 39,  1, 73)
  0  0.3517E-04  0 -0.2026E-04  0 -0.1155E-04  0 -0.8273E-05  0 -0.5720E-05
   ( 50,  1, 71)  (  2,  1, 73)  (  1,  1, 77)  (  1,  1, 57)  (  2,  1, 44)
  0 -0.4402E-05  0 -0.3069E-05  0 -0.1907E-05  0 -0.1229E-05  0 -0.1086E-05
   (  2,  1, 49)  (  3,  1, 41)  (  4,  1, 34)  (  5,  1, 27)  (  4,  1,  8)
  0 -0.1168E-05  0 -0.1179E-05  0 -0.1072E-05  0 -0.9096E-06  1 -0.2446E-06
   (  5,  1,  5)  (  1,  1,  8)  (  7,  1,  2)  (  2,  1,  3)  ( 41,  1,  6)

 MAXIMUM RESIDUAL FOR EACH ITERATION (1 INDICATES THE FIRST INNER ITERATION):

    RESIDUAL       RESIDUAL       RESIDUAL       RESIDUAL       RESIDUAL    
   LAYER,ROW,COL  LAYER,ROW,COL  LAYER,ROW,COL  LAYER,ROW,COL  LAYER,ROW,COL
 ---------------------------------------------------------------------------
  1   7.049      0   4.533      0  -1.918      0  -1.216      0 -0.9065    
   ( 50,  1, 54)  ( 50,  1, 46)  ( 50,  1, 60)  ( 50,  1, 66)  ( 50,  1, 44)
  0 -0.5069      0 -0.3637      0  0.1658      0  0.1120      0  0.8396E-01
   ( 49,  1, 55)  ( 49,  1, 51)  ( 50,  1, 43)  ( 49,  1, 55)  ( 49,  1, 50)
  0 -0.4477E-01  0  0.3881E-01  0  0.3088E-01  0 -0.2549E-01  0  0.2254E-01
   ( 49,  1, 63)  ( 43,  1, 99)  ( 39,  1, 99)  ( 44,  1, 99)  (  1,  1, 99)
  0  0.2318E-01  0  0.2288E-01  0  0.1971E-01  0 -0.2021E-01  1 -0.7044E-02
   ( 45,  1, 99)  ( 42,  1, 99)  ( 39,  1, 99)  ( 44,  1, 99)  ( 44,  1, 99)


 FLOW MODEL IS TRANSIENT
 FLOW MODEL CONTAINS CONSTANT-HEAD CELLS


 MAXIMUM STEPSIZE DURING WHICH ANY PARTICLE CANNOT MOVE MORE THAN ONE CELL
 =  9.483    (WHEN MIN. R.F.=1)  AT K=   1, I=   1, J=  99

 MAXIMUM STEPSIZE WHICH MEETS STABILITY CRITERION OF THE ADVECTION TERM
 (FOR PURE FINITE-DIFFERENCE OPTION, MIXELM=0) 
 =  9.248    (WHEN MIN. R.F.=1)  AT K=   1, I=   1, J=  99


 TOTAL NUMBER OF POINT SOURCES/SINKS PRESENT IN THE FLOW MODEL =       100

 MAXIMUM STEPSIZE WHICH MEETS STABILITY CRITERION OF THE SINK & SOURCE TERM
 =  122.8    (WHEN MIN. R.F.=1)  AT K=   1, I=   1, J=   1

 MAXIMUM STEPSIZE WHICH MEETS STABILITY CRITERION OF THE DISPERSION TERM
 =  2.112    (WHEN MIN. R.F.=1)  AT K=   1, I=   1, J=  99
     5 CALLS TO GCG PACKAGE FOR TRANSPORT TIME STEP  28 IN FLOW TIME STEP   1 STRESS PERIOD   5
    15 TOTAL ITERATIONS
 
 SOLVING FOR HEAD 


     2 CALLS TO PCG ROUTINE FOR TIME STEP   1 IN STRESS PERIOD    5
    20 TOTAL ITERATIONS

 MAXIMUM HEAD CHANGE FOR EACH ITERATION (1 INDICATES THE FIRST INNER ITERATION):

    HEAD CHANGE    HEAD CHANGE    HEAD CHANGE    HEAD CHANGE    HEAD CHANGE 
   LAYER,ROW,COL  LAYER,ROW,COL  LAYER,ROW,COL  LAYER,ROW,COL  LAYER,ROW,COL
 ---------------------------------------------------------------------------
  1  0.9697E-03  0  0.3081E-03  0  0.1597E-03  0  0.8770E-04  0  0.5854E-04
   ( 50,  1, 52)  ( 48,  1, 60)  ( 46,  1, 65)  ( 42,  1, 69)  ( 39,  1, 72)
  0  0.3511E-04  0 -0.2024E-04  0 -0.1153E-04  0 -0.8222E-05  0 -0.5659E-05
   ( 50,  1, 70)  (  2,  1, 73)  (  1,  1, 77)  (  1,  1, 57)  (  2,  1, 44)
  0 -0.4386E-05  0 -0.3044E-05  0 -0.1876E-05  0 -0.1195E-05  0 -0.1043E-05
   (  2,  1, 49)  (  3,  1, 40)  (  5,  1, 35)  (  5,  1, 27)  (  4,  1,  8)
  0 -0.1108E-05  0 -0.1123E-05  0 -0.1028E-05  0 -0.8852E-06  1 -0.2347E-06
   (  5,  1,  5)  (  6,  1,  1)  (  7,  1,  2)  (  2,  1,  3)  ( 41,  1,  6)

 MAXIMUM RESIDUAL FOR EACH ITERATION (1 INDICATES THE FIRST INNER ITERATION):

    RESIDUAL       RESIDUAL       RESIDUAL       RESIDUAL       RESIDUAL    
   LAYER,ROW,COL  LAYER,ROW,COL  LAYER,ROW,COL  LAYER,ROW,COL  LAYER,ROW,COL
 ---------------------------------------------------------------------------
  1   7.023      0   4.523      0  -1.909      0  -1.212      0 -0.9045    
   ( 50,  1, 54)  ( 50,  1, 46)  ( 50,  1, 60)  ( 50,  1, 66)  ( 50,  1, 44)
  0 -0.5053      0 -0.3629      0  0.1662      0  0.1115      0  0.8372E-01
   ( 49,  1, 55)  ( 49,  1, 51)  ( 50,  1, 43)  ( 49,  1, 55)  ( 49,  1, 50)
  0  0.4465E-01  0  0.3824E-01  0  0.3045E-01  0 -0.2478E-01  0  0.2171E-01
   ( 49,  1, 42)  ( 43,  1, 99)  ( 39,  1, 99)  ( 44,  1, 99)  (  1,  1, 99)
  0  0.2194E-01  0  0.2165E-01  0  0.1879E-01  0 -0.1927E-01  1 -0.6701E-02
   ( 45,  1, 99)  ( 42,  1, 99)  ( 39,  1, 99)  ( 44,  1, 99)  ( 44,  1, 99)


 FLOW MODEL IS TRANSIENT
 FLOW MODEL CONTAINS CONSTANT-HEAD CELLS


 MAXIMUM STEPSIZE DURING WHICH ANY PARTICLE CANNOT MOVE MORE THAN ONE CELL
 =  9.487    (WHEN MIN. R.F.=1)  AT K=   1, I=   1, J=  99

 MAXIMUM STEPSIZE WHICH MEETS STABILITY CRITERION OF THE ADVECTION TERM
 (FOR PURE FINITE-DIFFERENCE OPTION, MIXELM=0) 
 =  9.252    (WHEN MIN. R.F.=1)  AT K=   1, I=   1, J=  99


 TOTAL NUMBER OF POINT SOURCES/SINKS PRESENT IN THE FLOW MODEL =       100

 MAXIMUM STEPSIZE WHICH MEETS STABILITY CRITERION OF THE SINK & SOURCE TERM
 =  122.8    (WHEN MIN. R.F.=1)  AT K=   1, I=   1, J=   1

 MAXIMUM STEPSIZE WHICH MEETS STABILITY CRITERION OF THE DISPERSION TERM
 =  2.113    (WHEN MIN. R.F.=1)  AT K=   1, I=   1, J=  99
     5 CALLS TO GCG PACKAGE FOR TRANSPORT TIME STEP  29 IN FLOW TIME STEP   1 STRESS PERIOD   5
    15 TOTAL ITERATIONS
 
 SOLVING FOR HEAD 


     2 CALLS TO PCG ROUTINE FOR TIME STEP   1 IN STRESS PERIOD    5
    16 TOTAL ITERATIONS

 MAXIMUM HEAD CHANGE FOR EACH ITERATION (1 INDICATES THE FIRST INNER ITERATION):

    HEAD CHANGE    HEAD CHANGE    HEAD CHANGE    HEAD CHANGE    HEAD CHANGE 
   LAYER,ROW,COL  LAYER,ROW,COL  LAYER,ROW,COL  LAYER,ROW,COL  LAYER,ROW,COL
 ---------------------------------------------------------------------------
  1  0.9658E-03  0  0.3069E-03  0  0.1593E-03  0  0.8752E-04  0  0.5855E-04
   ( 50,  1, 52)  ( 48,  1, 60)  ( 46,  1, 65)  ( 43,  1, 70)  ( 39,  1, 72)
  0  0.3504E-04  0 -0.2018E-04  0 -0.1149E-04  0 -0.8174E-05  0 -0.5583E-05
   ( 50,  1, 70)  (  2,  1, 73)  (  1,  1, 77)  (  1,  1, 56)  (  2,  1, 44)
  0 -0.4312E-05  0 -0.2987E-05  0 -0.1820E-05  0 -0.1137E-05  0 -0.9706E-06
   (  2,  1, 49)  (  3,  1, 40)  (  5,  1, 35)  (  5,  1, 27)  (  4,  1,  8)
  1 -0.3408E-06
   (  2,  1, 86)

 MAXIMUM RESIDUAL FOR EACH ITERATION (1 INDICATES THE FIRST INNER ITERATION):

    RESIDUAL       RESIDUAL       RESIDUAL       RESIDUAL       RESIDUAL    
   LAYER,ROW,COL  LAYER,ROW,COL  LAYER,ROW,COL  LAYER,ROW,COL  LAYER,ROW,COL
 ---------------------------------------------------------------------------
  1   6.993      0   4.507      0  -1.908      0  -1.207      0 -0.9034    
   ( 50,  1, 54)  ( 50,  1, 46)  ( 49,  1, 45)  ( 50,  1, 66)  ( 50,  1, 43)
  0 -0.5043      0 -0.3609      0  0.1661      0  0.1109      0  0.8307E-01
   ( 49,  1, 54)  ( 49,  1, 51)  ( 50,  1, 43)  ( 49,  1, 55)  ( 49,  1, 50)
  0  0.4417E-01  0  0.3747E-01  0  0.2970E-01  0 -0.2374E-01  0  0.2034E-01
   ( 49,  1, 42)  ( 43,  1, 99)  ( 39,  1, 99)  ( 44,  1, 99)  (  1,  1, 99)
  1  0.8990E-02
   (  1,  1, 99)


 FLOW MODEL IS TRANSIENT
 FLOW MODEL CONTAINS CONSTANT-HEAD CELLS


 MAXIMUM STEPSIZE DURING WHICH ANY PARTICLE CANNOT MOVE MORE THAN ONE CELL
 =  9.490    (WHEN MIN. R.F.=1)  AT K=   1, I=   1, J=  99

 MAXIMUM STEPSIZE WHICH MEETS STABILITY CRITERION OF THE ADVECTION TERM
 (FOR PURE FINITE-DIFFERENCE OPTION, MIXELM=0) 
 =  9.255    (WHEN MIN. R.F.=1)  AT K=   1, I=   1, J=  99


 TOTAL NUMBER OF POINT SOURCES/SINKS PRESENT IN THE FLOW MODEL =       100

 MAXIMUM STEPSIZE WHICH MEETS STABILITY CRITERION OF THE SINK & SOURCE TERM
 =  122.8    (WHEN MIN. R.F.=1)  AT K=   1, I=   1, J=   1

 MAXIMUM STEPSIZE WHICH MEETS STABILITY CRITERION OF THE DISPERSION TERM
 =  2.114    (WHEN MIN. R.F.=1)  AT K=   1, I=   1, J=  99
     5 CALLS TO GCG PACKAGE FOR TRANSPORT TIME STEP  30 IN FLOW TIME STEP   1 STRESS PERIOD   5
    15 TOTAL ITERATIONS
 
 SOLVING FOR HEAD 


     2 CALLS TO PCG ROUTINE FOR TIME STEP   1 IN STRESS PERIOD    5
    16 TOTAL ITERATIONS

 MAXIMUM HEAD CHANGE FOR EACH ITERATION (1 INDICATES THE FIRST INNER ITERATION):

    HEAD CHANGE    HEAD CHANGE    HEAD CHANGE    HEAD CHANGE    HEAD CHANGE 
   LAYER,ROW,COL  LAYER,ROW,COL  LAYER,ROW,COL  LAYER,ROW,COL  LAYER,ROW,COL
 ---------------------------------------------------------------------------
  1  0.9618E-03  0  0.3056E-03  0  0.1590E-03  0  0.8751E-04  0  0.5875E-04
   ( 50,  1, 52)  ( 48,  1, 59)  ( 46,  1, 65)  ( 43,  1, 70)  ( 39,  1, 72)
  0  0.3486E-04  0 -0.1982E-04  0 -0.1125E-04  0 -0.7995E-05  0 -0.5582E-05
   ( 50,  1, 70)  (  1,  1, 72)  (  1,  1, 77)  (  1,  1, 56)  (  2,  1, 44)
  0 -0.4435E-05  0 -0.3064E-05  0 -0.1859E-05  0 -0.1161E-05  0 -0.9948E-06
   (  2,  1, 49)  (  3,  1, 40)  (  4,  1, 33)  (  4,  1, 25)  (  3,  1,  7)
  1 -0.3355E-06
   (  2,  1, 86)

 MAXIMUM RESIDUAL FOR EACH ITERATION (1 INDICATES THE FIRST INNER ITERATION):

    RESIDUAL       RESIDUAL       RESIDUAL       RESIDUAL       RESIDUAL    
   LAYER,ROW,COL  LAYER,ROW,COL  LAYER,ROW,COL  LAYER,ROW,COL  LAYER,ROW,COL
 ---------------------------------------------------------------------------
  1   6.965      0   4.489      0  -1.916      0  -1.202      0 -0.9046    
   ( 50,  1, 53)  ( 50,  1, 46)  ( 49,  1, 45)  ( 50,  1, 65)  ( 50,  1, 43)
  0 -0.5053      0 -0.3597      0  0.1684      0  0.1110      0  0.8406E-01
   ( 49,  1, 54)  ( 49,  1, 51)  ( 50,  1, 43)  ( 49,  1, 55)  ( 49,  1, 50)
  0  0.4486E-01  0  0.3749E-01  0  0.2979E-01  0 -0.2389E-01  0  0.2087E-01
   ( 49,  1, 42)  ( 43,  1, 99)  ( 39,  1, 99)  ( 44,  1, 99)  (  1,  1, 99)
  1  0.9028E-02
   (  1,  1, 99)


 FLOW MODEL IS TRANSIENT
 FLOW MODEL CONTAINS CONSTANT-HEAD CELLS


 MAXIMUM STEPSIZE DURING WHICH ANY PARTICLE CANNOT MOVE MORE THAN ONE CELL
 =  9.494    (WHEN MIN. R.F.=1)  AT K=   1, I=   1, J=  99

 MAXIMUM STEPSIZE WHICH MEETS STABILITY CRITERION OF THE ADVECTION TERM
 (FOR PURE FINITE-DIFFERENCE OPTION, MIXELM=0) 
 =  9.259    (WHEN MIN. R.F.=1)  AT K=   1, I=   1, J=  99


 TOTAL NUMBER OF POINT SOURCES/SINKS PRESENT IN THE FLOW MODEL =       100

 MAXIMUM STEPSIZE WHICH MEETS STABILITY CRITERION OF THE SINK & SOURCE TERM
 =  122.8    (WHEN MIN. R.F.=1)  AT K=   1, I=   1, J=   1

 MAXIMUM STEPSIZE WHICH MEETS STABILITY CRITERION OF THE DISPERSION TERM
 =  2.115    (WHEN MIN. R.F.=1)  AT K=   1, I=   1, J=  99
     5 CALLS TO GCG PACKAGE FOR TRANSPORT TIME STEP  31 IN FLOW TIME STEP   1 STRESS PERIOD   5
    15 TOTAL ITERATIONS
 
 SOLVING FOR HEAD 


     2 CALLS TO PCG ROUTINE FOR TIME STEP   1 IN STRESS PERIOD    5
    20 TOTAL ITERATIONS

 MAXIMUM HEAD CHANGE FOR EACH ITERATION (1 INDICATES THE FIRST INNER ITERATION):

    HEAD CHANGE    HEAD CHANGE    HEAD CHANGE    HEAD CHANGE    HEAD CHANGE 
   LAYER,ROW,COL  LAYER,ROW,COL  LAYER,ROW,COL  LAYER,ROW,COL  LAYER,ROW,COL
 ---------------------------------------------------------------------------
  1  0.9580E-03  0  0.3045E-03  0  0.1584E-03  0  0.8732E-04  0  0.5870E-04
   ( 50,  1, 51)  ( 48,  1, 59)  ( 46,  1, 65)  ( 43,  1, 70)  ( 39,  1, 72)
  0  0.3477E-04  0 -0.1999E-04  0 -0.1132E-04  0 -0.8089E-05  0 -0.5577E-05
   ( 50,  1, 70)  (  1,  1, 72)  (  1,  1, 77)  (  1,  1, 57)  (  2,  1, 44)
  0 -0.4457E-05  0 -0.3127E-05  0 -0.1929E-05  0 -0.1235E-05  0 -0.1101E-05
   (  2,  1, 49)  (  3,  1, 40)  (  5,  1, 35)  (  5,  1, 26)  (  3,  1,  6)
  0 -0.1188E-05  0 -0.1224E-05  0 -0.1080E-05  0 -0.8944E-06  1 -0.2424E-06
   (  5,  1,  4)  (  6,  1,  1)  (  2,  1,  3)  (  4,  1,  4)  ( 41,  1,  6)

 MAXIMUM RESIDUAL FOR EACH ITERATION (1 INDICATES THE FIRST INNER ITERATION):

    RESIDUAL       RESIDUAL       RESIDUAL       RESIDUAL       RESIDUAL    
   LAYER,ROW,COL  LAYER,ROW,COL  LAYER,ROW,COL  LAYER,ROW,COL  LAYER,ROW,COL
 ---------------------------------------------------------------------------
  1   6.954      0   4.462      0  -1.918      0  -1.198      0 -0.9024    
   ( 50,  1, 53)  ( 50,  1, 46)  ( 49,  1, 45)  ( 50,  1, 65)  ( 50,  1, 43)
  0 -0.5045      0 -0.3594      0  0.1672      0  0.1106      0  0.8360E-01
   ( 49,  1, 54)  ( 49,  1, 50)  ( 50,  1, 43)  ( 49,  1, 55)  ( 49,  1, 50)
  0  0.4479E-01  0  0.3746E-01  0  0.3027E-01  0 -0.2472E-01  0  0.2251E-01
   ( 49,  1, 42)  ( 43,  1, 99)  ( 39,  1, 99)  ( 44,  1, 99)  (  1,  1, 99)
  0  0.2287E-01  0  0.2271E-01  0  0.1966E-01  0 -0.1985E-01  1 -0.7020E-02
   ( 45,  1, 99)  ( 42,  1, 99)  ( 39,  1, 99)  ( 44,  1, 99)  ( 44,  1, 99)


 FLOW MODEL IS TRANSIENT
 FLOW MODEL CONTAINS CONSTANT-HEAD CELLS


 MAXIMUM STEPSIZE DURING WHICH ANY PARTICLE CANNOT MOVE MORE THAN ONE CELL
 =  9.498    (WHEN MIN. R.F.=1)  AT K=   1, I=   1, J=  99

 MAXIMUM STEPSIZE WHICH MEETS STABILITY CRITERION OF THE ADVECTION TERM
 (FOR PURE FINITE-DIFFERENCE OPTION, MIXELM=0) 
 =  9.263    (WHEN MIN. R.F.=1)  AT K=   1, I=   1, J=  99


 TOTAL NUMBER OF POINT SOURCES/SINKS PRESENT IN THE FLOW MODEL =       100

 MAXIMUM STEPSIZE WHICH MEETS STABILITY CRITERION OF THE SINK & SOURCE TERM
 =  122.8    (WHEN MIN. R.F.=1)  AT K=   1, I=   1, J=   1

 MAXIMUM STEPSIZE WHICH MEETS STABILITY CRITERION OF THE DISPERSION TERM
 =  2.115    (WHEN MIN. R.F.=1)  AT K=   1, I=   1, J=  99
     5 CALLS TO GCG PACKAGE FOR TRANSPORT TIME STEP  32 IN FLOW TIME STEP   1 STRESS PERIOD   5
    15 TOTAL ITERATIONS
 
 SOLVING FOR HEAD 


     2 CALLS TO PCG ROUTINE FOR TIME STEP   1 IN STRESS PERIOD    5
    20 TOTAL ITERATIONS

 MAXIMUM HEAD CHANGE FOR EACH ITERATION (1 INDICATES THE FIRST INNER ITERATION):

    HEAD CHANGE    HEAD CHANGE    HEAD CHANGE    HEAD CHANGE    HEAD CHANGE 
   LAYER,ROW,COL  LAYER,ROW,COL  LAYER,ROW,COL  LAYER,ROW,COL  LAYER,ROW,COL
 ---------------------------------------------------------------------------
  1  0.9557E-03  0  0.3032E-03  0  0.1576E-03  0  0.8680E-04  0  0.5827E-04
   ( 50,  1, 51)  ( 48,  1, 59)  ( 46,  1, 65)  ( 43,  1, 70)  ( 39,  1, 72)
  0  0.3475E-04  0 -0.2016E-04  0 -0.1153E-04  0 -0.8186E-05  0 -0.5495E-05
   ( 50,  1, 70)  (  2,  1, 73)  (  1,  1, 77)  (  1,  1, 56)  (  2,  1, 44)
  0 -0.4353E-05  0 -0.3081E-05  0 -0.1898E-05  0 -0.1217E-05  0 -0.1079E-05
   (  1,  1, 47)  (  3,  1, 40)  (  4,  1, 33)  (  5,  1, 26)  (  4,  1,  7)
  0 -0.1151E-05  0 -0.1185E-05  0 -0.1057E-05  0 -0.8876E-06  1 -0.2349E-06
   (  5,  1,  4)  (  6,  1,  1)  (  7,  1,  2)  (  4,  1,  4)  ( 41,  1,  6)

 MAXIMUM RESIDUAL FOR EACH ITERATION (1 INDICATES THE FIRST INNER ITERATION):

    RESIDUAL       RESIDUAL       RESIDUAL       RESIDUAL       RESIDUAL    
   LAYER,ROW,COL  LAYER,ROW,COL  LAYER,ROW,COL  LAYER,ROW,COL  LAYER,ROW,COL
 ---------------------------------------------------------------------------
  1   6.936      0   4.429      0  -1.917      0  -1.201      0 -0.9024    
   ( 50,  1, 53)  ( 50,  1, 46)  ( 49,  1, 45)  ( 50,  1, 65)  ( 50,  1, 43)
  0 -0.5032      0 -0.3595      0  0.1659      0  0.1103      0  0.8245E-01
   ( 49,  1, 54)  ( 49,  1, 50)  ( 50,  1, 43)  ( 49,  1, 54)  ( 49,  1, 50)
  0  0.4418E-01  0 -0.3686E-01  0  0.2982E-01  0 -0.2423E-01  0  0.2184E-01
   ( 49,  1, 42)  ( 49,  1, 54)  ( 39,  1, 99)  ( 44,  1, 99)  (  1,  1, 99)
  0  0.2193E-01  0  0.2188E-01  0  0.1916E-01  0 -0.1932E-01  1 -0.6814E-02
   ( 45,  1, 99)  ( 42,  1, 99)  ( 39,  1, 99)  ( 44,  1, 99)  (  1,  1, 99)


 FLOW MODEL IS TRANSIENT
 FLOW MODEL CONTAINS CONSTANT-HEAD CELLS


 MAXIMUM STEPSIZE DURING WHICH ANY PARTICLE CANNOT MOVE MORE THAN ONE CELL
 =  9.502    (WHEN MIN. R.F.=1)  AT K=   1, I=   1, J=  99

 MAXIMUM STEPSIZE WHICH MEETS STABILITY CRITERION OF THE ADVECTION TERM
 (FOR PURE FINITE-DIFFERENCE OPTION, MIXELM=0) 
 =  9.266    (WHEN MIN. R.F.=1)  AT K=   1, I=   1, J=  99


 TOTAL NUMBER OF POINT SOURCES/SINKS PRESENT IN THE FLOW MODEL =       100

 MAXIMUM STEPSIZE WHICH MEETS STABILITY CRITERION OF THE SINK & SOURCE TERM
 =  122.8    (WHEN MIN. R.F.=1)  AT K=   1, I=   1, J=   1

 MAXIMUM STEPSIZE WHICH MEETS STABILITY CRITERION OF THE DISPERSION TERM
 =  2.116    (WHEN MIN. R.F.=1)  AT K=   1, I=   1, J=  99
     5 CALLS TO GCG PACKAGE FOR TRANSPORT TIME STEP  33 IN FLOW TIME STEP   1 STRESS PERIOD   5
    15 TOTAL ITERATIONS
 
 SOLVING FOR HEAD 


     2 CALLS TO PCG ROUTINE FOR TIME STEP   1 IN STRESS PERIOD    5
    20 TOTAL ITERATIONS

 MAXIMUM HEAD CHANGE FOR EACH ITERATION (1 INDICATES THE FIRST INNER ITERATION):

    HEAD CHANGE    HEAD CHANGE    HEAD CHANGE    HEAD CHANGE    HEAD CHANGE 
   LAYER,ROW,COL  LAYER,ROW,COL  LAYER,ROW,COL  LAYER,ROW,COL  LAYER,ROW,COL
 ---------------------------------------------------------------------------
  1  0.9530E-03  0  0.3020E-03  0  0.1570E-03  0  0.8651E-04  0  0.5813E-04
   ( 50,  1, 51)  ( 48,  1, 59)  ( 46,  1, 65)  ( 43,  1, 70)  ( 39,  1, 72)
  0  0.3465E-04  0 -0.2007E-04  0 -0.1149E-04  0 -0.8113E-05  0 -0.5487E-05
   ( 50,  1, 70)  (  2,  1, 73)  (  1,  1, 77)  (  1,  1, 56)  (  2,  1, 44)
  0 -0.4356E-05  0 -0.3063E-05  0 -0.1885E-05  0 -0.1206E-05  0 -0.1062E-05
   (  2,  1, 48)  (  3,  1, 40)  (  4,  1, 33)  (  5,  1, 26)  (  4,  1,  7)
  0 -0.1130E-05  0 -0.1169E-05  0 -0.1046E-05  0 -0.8758E-06  1 -0.2307E-06
   (  5,  1,  4)  (  6,  1,  1)  (  2,  1,  3)  (  4,  1,  4)  ( 41,  1,  6)

 MAXIMUM RESIDUAL FOR EACH ITERATION (1 INDICATES THE FIRST INNER ITERATION):

    RESIDUAL       RESIDUAL       RESIDUAL       RESIDUAL       RESIDUAL    
   LAYER,ROW,COL  LAYER,ROW,COL  LAYER,ROW,COL  LAYER,ROW,COL  LAYER,ROW,COL
 ---------------------------------------------------------------------------
  1   6.920      0   4.410      0  -1.910      0  -1.200      0 -0.9006    
   ( 50,  1, 53)  ( 50,  1, 45)  ( 49,  1, 45)  ( 50,  1, 65)  ( 50,  1, 43)
  0 -0.5025      0 -0.3593      0  0.1657      0  0.1102      0  0.8214E-01
   ( 49,  1, 54)  ( 49,  1, 50)  ( 50,  1, 43)  ( 49,  1, 54)  ( 49,  1, 49)
  0 -0.4400E-01  0 -0.3678E-01  0  0.2955E-01  0 -0.2379E-01  0  0.2142E-01
   ( 49,  1, 62)  ( 49,  1, 54)  ( 39,  1, 99)  ( 44,  1, 99)  (  1,  1, 99)
  0  0.2135E-01  0  0.2137E-01  0  0.1884E-01  0 -0.1892E-01  1 -0.6793E-02
   ( 46,  1, 99)  ( 42,  1, 99)  ( 39,  1, 99)  ( 44,  1, 99)  (  1,  1, 99)


 FLOW MODEL IS TRANSIENT
 FLOW MODEL CONTAINS CONSTANT-HEAD CELLS


 MAXIMUM STEPSIZE DURING WHICH ANY PARTICLE CANNOT MOVE MORE THAN ONE CELL
 =  9.505    (WHEN MIN. R.F.=1)  AT K=   1, I=   1, J=  99

 MAXIMUM STEPSIZE WHICH MEETS STABILITY CRITERION OF THE ADVECTION TERM
 (FOR PURE FINITE-DIFFERENCE OPTION, MIXELM=0) 
 =  9.270    (WHEN MIN. R.F.=1)  AT K=   1, I=   1, J=  99


 TOTAL NUMBER OF POINT SOURCES/SINKS PRESENT IN THE FLOW MODEL =       100

 MAXIMUM STEPSIZE WHICH MEETS STABILITY CRITERION OF THE SINK & SOURCE TERM
 =  122.8    (WHEN MIN. R.F.=1)  AT K=   1, I=   1, J=   1

 MAXIMUM STEPSIZE WHICH MEETS STABILITY CRITERION OF THE DISPERSION TERM
 =  2.117    (WHEN MIN. R.F.=1)  AT K=   1, I=   1, J=  99
     5 CALLS TO GCG PACKAGE FOR TRANSPORT TIME STEP  34 IN FLOW TIME STEP   1 STRESS PERIOD   5
    15 TOTAL ITERATIONS
 
 SOLVING FOR HEAD 


     2 CALLS TO PCG ROUTINE FOR TIME STEP   1 IN STRESS PERIOD    5
    20 TOTAL ITERATIONS

 MAXIMUM HEAD CHANGE FOR EACH ITERATION (1 INDICATES THE FIRST INNER ITERATION):

    HEAD CHANGE    HEAD CHANGE    HEAD CHANGE    HEAD CHANGE    HEAD CHANGE 
   LAYER,ROW,COL  LAYER,ROW,COL  LAYER,ROW,COL  LAYER,ROW,COL  LAYER,ROW,COL
 ---------------------------------------------------------------------------
  1  0.9501E-03  0  0.3008E-03  0  0.1565E-03  0  0.8623E-04  0  0.5798E-04
   ( 50,  1, 51)  ( 48,  1, 59)  ( 46,  1, 65)  ( 43,  1, 70)  ( 39,  1, 72)
  0  0.3454E-04  0 -0.2003E-04  0 -0.1150E-04  0 -0.8136E-05  0 -0.5546E-05
   ( 50,  1, 70)  (  2,  1, 73)  (  1,  1, 77)  (  1,  1, 56)  (  2,  1, 43)
  0 -0.4462E-05  0 -0.3167E-05  0 -0.1990E-05  0 -0.1319E-05  0 -0.1218E-05
   (  2,  1, 48)  (  3,  1, 40)  (  4,  1, 33)  (  5,  1, 26)  (  4,  1,  7)
  0 -0.1333E-05  0 -0.1380E-05  0 -0.1189E-05  0 -0.9222E-06  1 -0.2508E-06
   (  5,  1,  4)  (  7,  1,  1)  (  2,  1,  3)  (  4,  1,  4)  ( 41,  1,  6)

 MAXIMUM RESIDUAL FOR EACH ITERATION (1 INDICATES THE FIRST INNER ITERATION):

    RESIDUAL       RESIDUAL       RESIDUAL       RESIDUAL       RESIDUAL    
   LAYER,ROW,COL  LAYER,ROW,COL  LAYER,ROW,COL  LAYER,ROW,COL  LAYER,ROW,COL
 ---------------------------------------------------------------------------
  1   6.897      0   4.416      0  -1.895      0  -1.198      0 -0.8997    
   ( 50,  1, 53)  ( 50,  1, 45)  ( 49,  1, 45)  ( 50,  1, 65)  ( 50,  1, 43)
  0 -0.5008      0 -0.3588      0  0.1650      0  0.1103      0  0.8290E-01
   ( 49,  1, 54)  ( 49,  1, 50)  ( 50,  1, 43)  ( 49,  1, 54)  ( 49,  1, 49)
  0 -0.4447E-01  0 -0.3758E-01  0  0.3035E-01  0 -0.2527E-01  0  0.2392E-01
   ( 49,  1, 62)  ( 49,  1, 53)  ( 39,  1, 99)  ( 44,  1, 99)  (  1,  1, 99)
  0  0.2456E-01  0  0.2474E-01  0  0.2158E-01  0 -0.2116E-01  1 -0.7669E-02
   ( 45,  1, 99)  ( 42,  1, 99)  ( 39,  1, 99)  ( 44,  1, 99)  (  1,  1, 99)


 FLOW MODEL IS TRANSIENT
 FLOW MODEL CONTAINS CONSTANT-HEAD CELLS


 MAXIMUM STEPSIZE DURING WHICH ANY PARTICLE CANNOT MOVE MORE THAN ONE CELL
 =  9.509    (WHEN MIN. R.F.=1)  AT K=   1, I=   1, J=  99

 MAXIMUM STEPSIZE WHICH MEETS STABILITY CRITERION OF THE ADVECTION TERM
 (FOR PURE FINITE-DIFFERENCE OPTION, MIXELM=0) 
 =  9.273    (WHEN MIN. R.F.=1)  AT K=   1, I=   1, J=  99


 TOTAL NUMBER OF POINT SOURCES/SINKS PRESENT IN THE FLOW MODEL =       100

 MAXIMUM STEPSIZE WHICH MEETS STABILITY CRITERION OF THE SINK & SOURCE TERM
 =  122.8    (WHEN MIN. R.F.=1)  AT K=   1, I=   1, J=   1

 MAXIMUM STEPSIZE WHICH MEETS STABILITY CRITERION OF THE DISPERSION TERM
 =  2.118    (WHEN MIN. R.F.=1)  AT K=   1, I=   1, J=  99
     5 CALLS TO GCG PACKAGE FOR TRANSPORT TIME STEP  35 IN FLOW TIME STEP   1 STRESS PERIOD   5
    15 TOTAL ITERATIONS
 
 SOLVING FOR HEAD 


     2 CALLS TO PCG ROUTINE FOR TIME STEP   1 IN STRESS PERIOD    5
    20 TOTAL ITERATIONS

 MAXIMUM HEAD CHANGE FOR EACH ITERATION (1 INDICATES THE FIRST INNER ITERATION):

    HEAD CHANGE    HEAD CHANGE    HEAD CHANGE    HEAD CHANGE    HEAD CHANGE 
   LAYER,ROW,COL  LAYER,ROW,COL  LAYER,ROW,COL  LAYER,ROW,COL  LAYER,ROW,COL
 ---------------------------------------------------------------------------
  1  0.9468E-03  0  0.2993E-03  0  0.1558E-03  0  0.8596E-04  0  0.5785E-04
   ( 50,  1, 51)  ( 48,  1, 59)  ( 46,  1, 64)  ( 43,  1, 69)  ( 39,  1, 72)
  0  0.3441E-04  0 -0.2007E-04  0 -0.1152E-04  0 -0.8118E-05  0 -0.5460E-05
   ( 50,  1, 70)  (  2,  1, 73)  (  1,  1, 77)  (  1,  1, 56)  (  2,  1, 43)
  0 -0.4419E-05  0 -0.3130E-05  0 -0.1952E-05  0 -0.1279E-05  0 -0.1161E-05
   (  2,  1, 48)  (  3,  1, 40)  (  4,  1, 33)  (  4,  1, 24)  (  4,  1,  7)
  0 -0.1259E-05  0 -0.1315E-05  0 -0.1149E-05  0 -0.9048E-06  1 -0.2440E-06
   (  5,  1,  4)  (  6,  1,  1)  (  2,  1,  3)  (  4,  1,  4)  ( 34,  1,  8)

 MAXIMUM RESIDUAL FOR EACH ITERATION (1 INDICATES THE FIRST INNER ITERATION):

    RESIDUAL       RESIDUAL       RESIDUAL       RESIDUAL       RESIDUAL    
   LAYER,ROW,COL  LAYER,ROW,COL  LAYER,ROW,COL  LAYER,ROW,COL  LAYER,ROW,COL
 ---------------------------------------------------------------------------
  1   6.875      0   4.416      0  -1.872      0  -1.195      0 -0.8967    
   ( 50,  1, 53)  ( 50,  1, 45)  ( 50,  1, 59)  ( 50,  1, 65)  ( 50,  1, 43)
  0 -0.4994      0 -0.3582      0  0.1637      0  0.1098      0  0.8261E-01
   ( 49,  1, 54)  ( 49,  1, 50)  ( 50,  1, 43)  ( 49,  1, 54)  ( 49,  1, 49)
  0  0.4414E-01  0 -0.3741E-01  0  0.2972E-01  0 -0.2442E-01  0  0.2286E-01
   ( 49,  1, 41)  ( 49,  1, 53)  ( 39,  1, 99)  ( 44,  1, 99)  (  1,  1, 99)
  0  0.2315E-01  0  0.2341E-01  0  0.2059E-01  0 -0.2027E-01  1 -0.7446E-02
   ( 45,  1, 99)  ( 42,  1, 99)  ( 39,  1, 99)  ( 44,  1, 99)  (  1,  1, 99)


 FLOW MODEL IS TRANSIENT
 FLOW MODEL CONTAINS CONSTANT-HEAD CELLS


 MAXIMUM STEPSIZE DURING WHICH ANY PARTICLE CANNOT MOVE MORE THAN ONE CELL
 =  9.513    (WHEN MIN. R.F.=1)  AT K=   1, I=   1, J=  99

 MAXIMUM STEPSIZE WHICH MEETS STABILITY CRITERION OF THE ADVECTION TERM
 (FOR PURE FINITE-DIFFERENCE OPTION, MIXELM=0) 
 =  9.277    (WHEN MIN. R.F.=1)  AT K=   1, I=   1, J=  99


 TOTAL NUMBER OF POINT SOURCES/SINKS PRESENT IN THE FLOW MODEL =       100

 MAXIMUM STEPSIZE WHICH MEETS STABILITY CRITERION OF THE SINK & SOURCE TERM
 =  122.8    (WHEN MIN. R.F.=1)  AT K=   1, I=   1, J=   1

 MAXIMUM STEPSIZE WHICH MEETS STABILITY CRITERION OF THE DISPERSION TERM
 =  2.119    (WHEN MIN. R.F.=1)  AT K=   1, I=   1, J=  99
     5 CALLS TO GCG PACKAGE FOR TRANSPORT TIME STEP  36 IN FLOW TIME STEP   1 STRESS PERIOD   5
    15 TOTAL ITERATIONS
 
 SOLVING FOR HEAD 


     2 CALLS TO PCG ROUTINE FOR TIME STEP   1 IN STRESS PERIOD    5
    20 TOTAL ITERATIONS

 MAXIMUM HEAD CHANGE FOR EACH ITERATION (1 INDICATES THE FIRST INNER ITERATION):

    HEAD CHANGE    HEAD CHANGE    HEAD CHANGE    HEAD CHANGE    HEAD CHANGE 
   LAYER,ROW,COL  LAYER,ROW,COL  LAYER,ROW,COL  LAYER,ROW,COL  LAYER,ROW,COL
 ---------------------------------------------------------------------------
  1  0.9433E-03  0  0.2981E-03  0  0.1555E-03  0  0.8583E-04  0  0.5778E-04
   ( 50,  1, 51)  ( 48,  1, 59)  ( 46,  1, 64)  ( 43,  1, 69)  ( 39,  1, 72)
  0  0.3436E-04  0 -0.1994E-04  0 -0.1146E-04  0 -0.8001E-05  0 -0.5387E-05
   ( 50,  1, 69)  (  2,  1, 73)  (  1,  1, 77)  (  1,  1, 56)  (  2,  1, 43)
  0 -0.4336E-05  0 -0.3019E-05  0 -0.1845E-05  0 -0.1168E-05  0 -0.1013E-05
   (  2,  1, 48)  (  3,  1, 39)  (  5,  1, 34)  (  4,  1, 24)  (  4,  1,  7)
  0 -0.1067E-05  0 -0.1116E-05  0 -0.1009E-05  0 -0.8361E-06  1 -0.2207E-06
   (  5,  1,  4)  (  6,  1,  1)  (  2,  1,  3)  (  4,  1,  4)  ( 34,  1,  8)

 MAXIMUM RESIDUAL FOR EACH ITERATION (1 INDICATES THE FIRST INNER ITERATION):

    RESIDUAL       RESIDUAL       RESIDUAL       RESIDUAL       RESIDUAL    
   LAYER,ROW,COL  LAYER,ROW,COL  LAYER,ROW,COL  LAYER,ROW,COL  LAYER,ROW,COL
 ---------------------------------------------------------------------------
  1   6.842      0   4.407      0  -1.866      0  -1.192      0 -0.8947    
   ( 50,  1, 53)  ( 50,  1, 45)  ( 49,  1, 44)  ( 50,  1, 65)  ( 50,  1, 43)
  0 -0.4980      0 -0.3565      0  0.1641      0  0.1090      0  0.8187E-01
   ( 49,  1, 53)  ( 49,  1, 50)  ( 50,  1, 42)  ( 49,  1, 54)  ( 49,  1, 49)
  0  0.4363E-01  0 -0.3666E-01  0  0.2856E-01  0 -0.2260E-01  0  0.2020E-01
   ( 49,  1, 41)  ( 49,  1, 53)  ( 39,  1, 99)  ( 44,  1, 99)  (  1,  1, 99)
  0  0.1995E-01  0  0.1992E-01  0  0.1769E-01  0 -0.1767E-01  1 -0.6630E-02
   ( 46,  1, 99)  ( 43,  1, 99)  ( 39,  1, 99)  ( 44,  1, 99)  (  1,  1, 99)


 FLOW MODEL IS TRANSIENT
 FLOW MODEL CONTAINS CONSTANT-HEAD CELLS


 MAXIMUM STEPSIZE DURING WHICH ANY PARTICLE CANNOT MOVE MORE THAN ONE CELL
 =  9.517    (WHEN MIN. R.F.=1)  AT K=   1, I=   1, J=  99

 MAXIMUM STEPSIZE WHICH MEETS STABILITY CRITERION OF THE ADVECTION TERM
 (FOR PURE FINITE-DIFFERENCE OPTION, MIXELM=0) 
 =  9.280    (WHEN MIN. R.F.=1)  AT K=   1, I=   1, J=  99


 TOTAL NUMBER OF POINT SOURCES/SINKS PRESENT IN THE FLOW MODEL =       100

 MAXIMUM STEPSIZE WHICH MEETS STABILITY CRITERION OF THE SINK & SOURCE TERM
 =  122.8    (WHEN MIN. R.F.=1)  AT K=   1, I=   1, J=   1

 MAXIMUM STEPSIZE WHICH MEETS STABILITY CRITERION OF THE DISPERSION TERM
 =  2.119    (WHEN MIN. R.F.=1)  AT K=   1, I=   1, J=  99
     5 CALLS TO GCG PACKAGE FOR TRANSPORT TIME STEP  37 IN FLOW TIME STEP   1 STRESS PERIOD   5
    15 TOTAL ITERATIONS
 
 SOLVING FOR HEAD 


     2 CALLS TO PCG ROUTINE FOR TIME STEP   1 IN STRESS PERIOD    5
    20 TOTAL ITERATIONS

 MAXIMUM HEAD CHANGE FOR EACH ITERATION (1 INDICATES THE FIRST INNER ITERATION):

    HEAD CHANGE    HEAD CHANGE    HEAD CHANGE    HEAD CHANGE    HEAD CHANGE 
   LAYER,ROW,COL  LAYER,ROW,COL  LAYER,ROW,COL  LAYER,ROW,COL  LAYER,ROW,COL
 ---------------------------------------------------------------------------
  1  0.9398E-03  0  0.2967E-03  0  0.1549E-03  0  0.8559E-04  0  0.5764E-04
   ( 50,  1, 51)  ( 48,  1, 59)  ( 46,  1, 64)  ( 43,  1, 69)  ( 39,  1, 71)
  0  0.3428E-04  0 -0.1996E-04  0 -0.1148E-04  0 -0.8008E-05  0 -0.5409E-05
   ( 50,  1, 69)  (  2,  1, 73)  (  1,  1, 77)  (  1,  1, 56)  (  2,  1, 43)
  0 -0.4379E-05  0 -0.3074E-05  0 -0.1899E-05  0 -0.1224E-05  0 -0.1091E-05
   (  2,  1, 48)  (  3,  1, 39)  (  5,  1, 34)  (  4,  1, 24)  (  4,  1,  7)
  0 -0.1167E-05  0 -0.1229E-05  0 -0.1094E-05  0 -0.8711E-06  1 -0.2341E-06
   (  5,  1,  4)  (  6,  1,  1)  (  2,  1,  3)  (  4,  1,  4)  ( 34,  1,  8)

 MAXIMUM RESIDUAL FOR EACH ITERATION (1 INDICATES THE FIRST INNER ITERATION):

    RESIDUAL       RESIDUAL       RESIDUAL       RESIDUAL       RESIDUAL    
   LAYER,ROW,COL  LAYER,ROW,COL  LAYER,ROW,COL  LAYER,ROW,COL  LAYER,ROW,COL
 ---------------------------------------------------------------------------
  1   6.815      0   4.396      0  -1.882      0  -1.188      0 -0.8944    
   ( 50,  1, 53)  ( 50,  1, 45)  ( 49,  1, 44)  ( 50,  1, 64)  ( 50,  1, 42)
  0 -0.4983      0 -0.3552      0  0.1644      0  0.1088      0  0.8199E-01
   ( 49,  1, 53)  ( 49,  1, 50)  ( 50,  1, 42)  ( 49,  1, 54)  ( 49,  1, 49)
  0  0.4378E-01  0 -0.3716E-01  0  0.2885E-01  0 -0.2317E-01  0  0.2132E-01
   ( 49,  1, 41)  ( 49,  1, 53)  ( 39,  1, 99)  ( 44,  1, 99)  (  1,  1, 99)
  0  0.2137E-01  0  0.2161E-01  0  0.1915E-01  0 -0.1888E-01  1 -0.7170E-02
   ( 46,  1, 99)  ( 43,  1, 99)  ( 39,  1, 99)  ( 44,  1, 99)  (  1,  1, 99)


 FLOW MODEL IS TRANSIENT
 FLOW MODEL CONTAINS CONSTANT-HEAD CELLS


 MAXIMUM STEPSIZE DURING WHICH ANY PARTICLE CANNOT MOVE MORE THAN ONE CELL
 =  9.520    (WHEN MIN. R.F.=1)  AT K=   1, I=   1, J=  99

 MAXIMUM STEPSIZE WHICH MEETS STABILITY CRITERION OF THE ADVECTION TERM
 (FOR PURE FINITE-DIFFERENCE OPTION, MIXELM=0) 
 =  9.284    (WHEN MIN. R.F.=1)  AT K=   1, I=   1, J=  99


 TOTAL NUMBER OF POINT SOURCES/SINKS PRESENT IN THE FLOW MODEL =       100

 MAXIMUM STEPSIZE WHICH MEETS STABILITY CRITERION OF THE SINK & SOURCE TERM
 =  122.8    (WHEN MIN. R.F.=1)  AT K=   1, I=   1, J=   1

 MAXIMUM STEPSIZE WHICH MEETS STABILITY CRITERION OF THE DISPERSION TERM
 =  2.120    (WHEN MIN. R.F.=1)  AT K=   1, I=   1, J=  99
     5 CALLS TO GCG PACKAGE FOR TRANSPORT TIME STEP  38 IN FLOW TIME STEP   1 STRESS PERIOD   5
    15 TOTAL ITERATIONS
 
 SOLVING FOR HEAD 


     2 CALLS TO PCG ROUTINE FOR TIME STEP   1 IN STRESS PERIOD    5
    20 TOTAL ITERATIONS

 MAXIMUM HEAD CHANGE FOR EACH ITERATION (1 INDICATES THE FIRST INNER ITERATION):

    HEAD CHANGE    HEAD CHANGE    HEAD CHANGE    HEAD CHANGE    HEAD CHANGE 
   LAYER,ROW,COL  LAYER,ROW,COL  LAYER,ROW,COL  LAYER,ROW,COL  LAYER,ROW,COL
 ---------------------------------------------------------------------------
  1  0.9357E-03  0  0.2954E-03  0  0.1545E-03  0  0.8536E-04  0  0.5752E-04
   ( 50,  1, 51)  ( 48,  1, 58)  ( 46,  1, 64)  ( 43,  1, 69)  ( 39,  1, 71)
  0  0.3421E-04  0 -0.1987E-04  0 -0.1146E-04  0 -0.7971E-05  0 -0.5381E-05
   ( 50,  1, 69)  (  2,  1, 73)  (  1,  1, 77)  (  1,  1, 56)  (  2,  1, 43)
  0 -0.4372E-05  0 -0.3079E-05  0 -0.1902E-05  0 -0.1227E-05  0 -0.1096E-05
   (  2,  1, 48)  (  3,  1, 39)  (  5,  1, 34)  (  4,  1, 24)  (  3,  1,  6)
  0 -0.1175E-05  0 -0.1242E-05  0 -0.1105E-05  0 -0.8678E-06  1 -0.2348E-06
   (  5,  1,  4)  (  6,  1,  1)  (  2,  1,  3)  (  2,  1,  3)  ( 34,  1,  8)

 MAXIMUM RESIDUAL FOR EACH ITERATION (1 INDICATES THE FIRST INNER ITERATION):

    RESIDUAL       RESIDUAL       RESIDUAL       RESIDUAL       RESIDUAL    
   LAYER,ROW,COL  LAYER,ROW,COL  LAYER,ROW,COL  LAYER,ROW,COL  LAYER,ROW,COL
 ---------------------------------------------------------------------------
  1   6.797      0   4.377      0  -1.893      0  -1.186      0 -0.8942    
   ( 50,  1, 52)  ( 50,  1, 45)  ( 49,  1, 44)  ( 50,  1, 64)  ( 50,  1, 42)
  0 -0.4979      0 -0.3537      0  0.1650      0  0.1085      0  0.8178E-01
   ( 49,  1, 53)  ( 49,  1, 50)  ( 50,  1, 42)  ( 49,  1, 54)  ( 49,  1, 49)
  0  0.4373E-01  0 -0.3712E-01  0  0.2862E-01  0 -0.2297E-01  0  0.2129E-01
   ( 49,  1, 41)  ( 49,  1, 53)  ( 39,  1, 99)  ( 44,  1, 99)  (  1,  1, 99)
  0  0.2137E-01  0  0.2163E-01  0  0.1919E-01  0 -0.1884E-01  1 -0.7256E-02
   ( 46,  1, 99)  ( 43,  1, 99)  ( 39,  1, 99)  ( 44,  1, 99)  (  1,  1, 99)


 FLOW MODEL IS TRANSIENT
 FLOW MODEL CONTAINS CONSTANT-HEAD CELLS


 MAXIMUM STEPSIZE DURING WHICH ANY PARTICLE CANNOT MOVE MORE THAN ONE CELL
 =  9.524    (WHEN MIN. R.F.=1)  AT K=   1, I=   1, J=  99

 MAXIMUM STEPSIZE WHICH MEETS STABILITY CRITERION OF THE ADVECTION TERM
 (FOR PURE FINITE-DIFFERENCE OPTION, MIXELM=0) 
 =  9.287    (WHEN MIN. R.F.=1)  AT K=   1, I=   1, J=  99


 TOTAL NUMBER OF POINT SOURCES/SINKS PRESENT IN THE FLOW MODEL =       100

 MAXIMUM STEPSIZE WHICH MEETS STABILITY CRITERION OF THE SINK & SOURCE TERM
 =  122.8    (WHEN MIN. R.F.=1)  AT K=   1, I=   1, J=   1

 MAXIMUM STEPSIZE WHICH MEETS STABILITY CRITERION OF THE DISPERSION TERM
 =  2.121    (WHEN MIN. R.F.=1)  AT K=   1, I=   1, J=  99
     5 CALLS TO GCG PACKAGE FOR TRANSPORT TIME STEP  39 IN FLOW TIME STEP   1 STRESS PERIOD   5
    15 TOTAL ITERATIONS
 
 SOLVING FOR HEAD 


     2 CALLS TO PCG ROUTINE FOR TIME STEP   1 IN STRESS PERIOD    5
    15 TOTAL ITERATIONS

 MAXIMUM HEAD CHANGE FOR EACH ITERATION (1 INDICATES THE FIRST INNER ITERATION):

    HEAD CHANGE    HEAD CHANGE    HEAD CHANGE    HEAD CHANGE    HEAD CHANGE 
   LAYER,ROW,COL  LAYER,ROW,COL  LAYER,ROW,COL  LAYER,ROW,COL  LAYER,ROW,COL
 ---------------------------------------------------------------------------
  1  0.9164E-03  0  0.2816E-03  0  0.1407E-03  0  0.7557E-04  0  0.4933E-04
   ( 50,  1, 50)  ( 48,  1, 58)  ( 46,  1, 64)  ( 43,  1, 69)  ( 39,  1, 71)
  0  0.2813E-04  0 -0.1597E-04  0 -0.9130E-05  0 -0.6159E-05  0 -0.4050E-05
   ( 50,  1, 69)  (  2,  1, 73)  (  1,  1, 77)  (  1,  1, 55)  (  1,  1, 60)
  0 -0.3297E-05  0 -0.2340E-05  0 -0.1491E-05  0 -0.9843E-06  1 -0.3421E-06
   (  2,  1, 47)  (  3,  1, 39)  (  2,  1, 43)  (  5,  1, 25)  (  4,  1,  7)

 MAXIMUM RESIDUAL FOR EACH ITERATION (1 INDICATES THE FIRST INNER ITERATION):

    RESIDUAL       RESIDUAL       RESIDUAL       RESIDUAL       RESIDUAL    
   LAYER,ROW,COL  LAYER,ROW,COL  LAYER,ROW,COL  LAYER,ROW,COL  LAYER,ROW,COL
 ---------------------------------------------------------------------------
  1   6.681      0   4.182      0  -1.767      0  -1.069      0 -0.7804    
   ( 50,  1, 52)  ( 50,  1, 45)  ( 49,  1, 44)  ( 50,  1, 64)  ( 50,  1, 42)
  0 -0.4248      0 -0.2953      0  0.1316      0  0.8629E-01  0  0.6244E-01
   ( 49,  1, 53)  ( 49,  1, 49)  ( 50,  1, 42)  ( 49,  1, 53)  ( 49,  1, 49)
  0 -0.3351E-01  0 -0.2802E-01  0  0.2196E-01  0 -0.1847E-01  1  0.6751E-02
   ( 49,  1, 61)  ( 49,  1, 53)  ( 39,  1, 99)  ( 44,  1, 99)  (  1,  1, 98)


 FLOW MODEL IS TRANSIENT
 FLOW MODEL CONTAINS CONSTANT-HEAD CELLS


 MAXIMUM STEPSIZE DURING WHICH ANY PARTICLE CANNOT MOVE MORE THAN ONE CELL
 =  9.527    (WHEN MIN. R.F.=1)  AT K=   1, I=   1, J=  99

 MAXIMUM STEPSIZE WHICH MEETS STABILITY CRITERION OF THE ADVECTION TERM
 (FOR PURE FINITE-DIFFERENCE OPTION, MIXELM=0) 
 =  9.290    (WHEN MIN. R.F.=1)  AT K=   1, I=   1, J=  99


 TOTAL NUMBER OF POINT SOURCES/SINKS PRESENT IN THE FLOW MODEL =       100

 MAXIMUM STEPSIZE WHICH MEETS STABILITY CRITERION OF THE SINK & SOURCE TERM
 =  122.8    (WHEN MIN. R.F.=1)  AT K=   1, I=   1, J=   1

 MAXIMUM STEPSIZE WHICH MEETS STABILITY CRITERION OF THE DISPERSION TERM
 =  2.122    (WHEN MIN. R.F.=1)  AT K=   1, I=   1, J=  99
     4 CALLS TO GCG PACKAGE FOR TRANSPORT TIME STEP  40 IN FLOW TIME STEP   1 STRESS PERIOD   5
    11 TOTAL ITERATIONS
  MAXIMUM CONCENTRATION CHANGES FOR EACH ITERATION:
  MAX. CHANGE LAYER,ROW,COL MAX. CHANGE LAYER,ROW,COL MAX. CHANGE LAYER,ROW,COL MAX. CHANGE LAYER,ROW,COL MAX. CHANGE LAYER,ROW,COL
 ------------------------------------------------------------------------------------------------------------------------------------
   0.1293     (  1,  1, 99)  0.1509E-02 (  1,  1, 99)  0.3004E-04 (  1,  1, 99)  0.7600E-06 (  2,  1, 96)  0.1383E-02 (  1,  1, 97)
   0.4613E-04 (  1,  1, 98)  0.6557E-06 (  2,  1, 97)  0.4506E-04 ( 11,  1, 98)  0.1013E-05 ( 10,  1, 97)  0.2980E-07 (  1,  1, 97)
    0.000     (  1,  1,  1)



 >>>>>>>>>>>>>>>>>>>>>>>>>>>>>>>>>>>>>>>>>>>>>>>>>>>>>>>FOR COMPONENT NO. 01<<<<<<<<<<<<<<<<<<<<<<<<<<<<<<<<<<<<<<<<<<<<<<<<<<<<<<<


                                            -------------------------------------------
                                                      TRANSPORT STEP NO.   40
                                            -------------------------------------------

 TOTAL ELAPSED TIME SINCE BEGINNING OF SIMULATION =   1826.000       D
 .....................................................................

                     CUMMULATIVE MASS BUDGETS AT END OF TRANSPORT STEP   40, TIME STEP    1, STRESS PERIOD    5
                     ------------------------------------------------------------------------------------------

                                                             IN                           OUT
                                                      ----------------             ----------------
                               CONSTANT CONCENTRATION:    2484188.                   -1343890.    
                                        CONSTANT HEAD:    0.000000                    0.000000    
                                                WELLS:    0.000000                    0.000000    
                               MASS STOR (FLOW MODEL):    98.34269                   -1800.443    
                                MASS STORAGE (SOLUTE):    848.1883                   -1139444.    
                            ---------------------------------------------------------------------------
                                              [TOTAL]:    2485134.        K          -2485134.        K

                                                          NET (IN - OUT):    0.000000    
                                                   DISCREPANCY (PERCENT):    0.000000    

 HEAD WILL BE SAVED ON UNIT   99 AT END OF TIME STEP   1, STRESS PERIOD    5
1
  MASS BUDGET FOR ENTIRE MODEL AT END OF TIME STEP  1 IN STRESS PERIOD   5
  ------------------------------------------------------------------------------

     CUMULATIVE MASS      M       RATES FOR THIS TIME STEP      M/T
     ------------------                 ------------------------

           IN:                                      IN:
           ---                                      ---
             STORAGE =       63690.0977               STORAGE =          49.2940
       CONSTANT HEAD =    33749472.0000         CONSTANT HEAD =       11233.1035
               WELLS =    26031442.0000                 WELLS =       14256.0000
                DCDT =        1423.1466                  DCDT =       1.4266E-02

            TOTAL IN =    59846028.0000              TOTAL IN =       25538.4121

          OUT:                                     OUT:
          ----                                     ----
             STORAGE =     3955156.5000               STORAGE =          50.7310
       CONSTANT HEAD =    54948760.0000         CONSTANT HEAD =       25261.3320
               WELLS =           0.0000                 WELLS =           0.0000
                DCDT =      943018.8750                  DCDT =         227.5585

           TOTAL OUT =    59846936.0000             TOTAL OUT =       25539.6211

            IN - OUT =        -908.0000              IN - OUT =          -1.2090

 PERCENT DISCREPANCY =          -0.00     PERCENT DISCREPANCY =          -0.00



0


          TIME SUMMARY AT END OF TRANSPORT STEP   40 IN TIME STEP    1 IN STRESS PERIOD   5
                    SECONDS     MINUTES      HOURS       DAYS        YEARS
                    -----------------------------------------------------------
  TRANS STEP LENGTH 4.94701E+05  8245.0      137.42      5.7257     1.56761E-02
   TIME STEP LENGTH 3.15360E+07 5.25600E+05  8760.0      365.00     0.99932    
 STRESS PERIOD TIME 3.15360E+07 5.25600E+05  8760.0      365.00     0.99931    
         TOTAL TIME 1.57766E+08 2.62944E+06  43824.      1826.0      4.9993    
1


                                   ++++++++++++++++++++++++++++++++++++++++++++++++++++++++++++++
                                                       STRESS PERIOD NO.  006
                                   ++++++++++++++++++++++++++++++++++++++++++++++++++++++++++++++


 LENGTH OF CURRENT STRESS PERIOD =   365.0000    
 NUMBER OF TIME STEPS FOR CURRENT STRESS PERIOD =    1
 TIME STEP MULTIPLIER USED IN FLOW SOLUTION =   1.000000    
 USER-SPECIFIED TRANSPORT STEPSIZE =   0.000000       D
 MAXIMUM NUMBER OF TRANSPORT STEPS ALLOWED  IN ONE FLOW TIME STEP =     50000
 MULTIPLIER FOR SUCCESSIVE TRANSPORT STEPS  [USED IN IMPLICIT SCHEMES] =     1.000
 MAXIMUM TRANSPORT STEP SIZE  [USED IN IMPLICIT SCHEMES] =   0.000000       D
1
                            STRESS PERIOD NO.    6, LENGTH =   365.0000    
                            -----------------------------------------------

                              NUMBER OF TIME STEPS =     1

                               MULTIPLIER FOR DELT =     1.000

                            INITIAL TIME STEP SIZE =   365.0000    

 NO. OF POINT SINKS/SOURCES OF SPECIFIED CONCONCENTRATIONS =    0 IN STRESS PERIOD  6

 WELL NO.  LAYER   ROW   COL   STRESS RATE         NOPRINT         
 ------------------------------------------------------------------

     50 WELLS


                                          ================================================
                                                         FROM TIME =   1826.0     TO    2191.0    

 
 SOLVING FOR HEAD 


     2 CALLS TO PCG ROUTINE FOR TIME STEP   1 IN STRESS PERIOD    6
    15 TOTAL ITERATIONS

 MAXIMUM HEAD CHANGE FOR EACH ITERATION (1 INDICATES THE FIRST INNER ITERATION):

    HEAD CHANGE    HEAD CHANGE    HEAD CHANGE    HEAD CHANGE    HEAD CHANGE 
   LAYER,ROW,COL  LAYER,ROW,COL  LAYER,ROW,COL  LAYER,ROW,COL  LAYER,ROW,COL
 ---------------------------------------------------------------------------
  1  0.5916E-03  0  0.1960E-03  0  0.1115E-03  0  0.6104E-04  0  0.4039E-04
   ( 50,  1, 50)  ( 48,  1, 58)  ( 46,  1, 64)  ( 43,  1, 69)  ( 39,  1, 71)
  0 -0.2878E-04  0 -0.1562E-04  0 -0.8933E-05  0 -0.4869E-05  0 -0.4324E-05
   (  5,  1, 73)  (  6,  1, 67)  (  1,  1, 81)  (  1,  1, 62)  (  1,  1, 57)
  0 -0.3634E-05  0 -0.2169E-05  0 -0.1364E-05  0 -0.8833E-06  1 -0.2471E-06
   (  2,  1, 49)  (  3,  1, 41)  (  5,  1, 37)  (  4,  1, 28)  (  5,  1, 19)

 MAXIMUM RESIDUAL FOR EACH ITERATION (1 INDICATES THE FIRST INNER ITERATION):

    RESIDUAL       RESIDUAL       RESIDUAL       RESIDUAL       RESIDUAL    
   LAYER,ROW,COL  LAYER,ROW,COL  LAYER,ROW,COL  LAYER,ROW,COL  LAYER,ROW,COL
 ---------------------------------------------------------------------------
  1   5.330      0   4.113      0   2.803      0   2.042      0   1.567    
   (  2,  1, 99)  (  1,  1, 98)  (  1,  1, 99)  (  2,  1, 97)  (  2,  1, 98)
  0  0.8406      0 -0.4893      0  0.2299      0  0.1719      0 -0.1206    
   (  2,  1, 99)  (  2,  1, 97)  (  3,  1, 97)  (  3,  1, 98)  (  3,  1, 97)
  0 -0.7600E-01  0  0.4301E-01  0  0.3613E-01  0  0.1825E-01  1  0.9966E-02
   (  3,  1, 98)  (  3,  1, 96)  (  3,  1, 97)  (  5,  1, 96)  (  2,  1, 99)


 FLOW MODEL IS TRANSIENT
 FLOW MODEL CONTAINS CONSTANT-HEAD CELLS


 MAXIMUM STEPSIZE DURING WHICH ANY PARTICLE CANNOT MOVE MORE THAN ONE CELL
 =  9.507    (WHEN MIN. R.F.=1)  AT K=   1, I=   1, J=  99

 MAXIMUM STEPSIZE WHICH MEETS STABILITY CRITERION OF THE ADVECTION TERM
 (FOR PURE FINITE-DIFFERENCE OPTION, MIXELM=0) 
 =  9.265    (WHEN MIN. R.F.=1)  AT K=   1, I=   1, J=  99


 TOTAL NUMBER OF POINT SOURCES/SINKS PRESENT IN THE FLOW MODEL =       100

 MAXIMUM STEPSIZE WHICH MEETS STABILITY CRITERION OF THE SINK & SOURCE TERM
 =  122.8    (WHEN MIN. R.F.=1)  AT K=   1, I=   1, J=   1

 MAXIMUM STEPSIZE WHICH MEETS STABILITY CRITERION OF THE DISPERSION TERM
 =  2.116    (WHEN MIN. R.F.=1)  AT K=   1, I=   1, J=  99


     5 CALLS TO GCG PACKAGE FOR TRANSPORT TIME STEP   1 IN FLOW TIME STEP   1 STRESS PERIOD   6
    15 TOTAL ITERATIONS

 OUTPUT CONTROL FOR STRESS PERIOD    6   TIME STEP   1
    SAVE HEAD FOR ALL LAYERS
    SAVE BUDGET FOR ALL LAYERS
    SAVE BUDGET
 
 SOLVING FOR HEAD 


     2 CALLS TO PCG ROUTINE FOR TIME STEP   1 IN STRESS PERIOD    6
    20 TOTAL ITERATIONS

 MAXIMUM HEAD CHANGE FOR EACH ITERATION (1 INDICATES THE FIRST INNER ITERATION):

    HEAD CHANGE    HEAD CHANGE    HEAD CHANGE    HEAD CHANGE    HEAD CHANGE 
   LAYER,ROW,COL  LAYER,ROW,COL  LAYER,ROW,COL  LAYER,ROW,COL  LAYER,ROW,COL
 ---------------------------------------------------------------------------
  1  0.9126E-03  0  0.2859E-03  0  0.1510E-03  0  0.8337E-04  0  0.5612E-04
   ( 50,  1, 50)  ( 48,  1, 58)  ( 46,  1, 64)  ( 43,  1, 69)  ( 39,  1, 71)
  0  0.3243E-04  0 -0.2233E-04  0 -0.1225E-04  0 -0.9023E-05  0 -0.5498E-05
   ( 50,  1, 69)  (  2,  1, 72)  (  1,  1, 77)  (  2,  1, 56)  (  1,  1, 61)
  0 -0.4095E-05  0 -0.3088E-05  0 -0.2075E-05  0 -0.1306E-05  0 -0.1234E-05
   (  2,  1, 47)  (  1,  1, 51)  (  2,  1, 43)  (  1,  1, 36)  (  4,  1,  7)
  0 -0.1325E-05  0 -0.1420E-05  0 -0.1208E-05  0 -0.9143E-06  1 -0.2767E-06
   (  2,  1, 10)  ( 11,  1,  1)  (  2,  1,  2)  ( 49,  1, 13)  ( 41,  1,  6)

 MAXIMUM RESIDUAL FOR EACH ITERATION (1 INDICATES THE FIRST INNER ITERATION):

    RESIDUAL       RESIDUAL       RESIDUAL       RESIDUAL       RESIDUAL    
   LAYER,ROW,COL  LAYER,ROW,COL  LAYER,ROW,COL  LAYER,ROW,COL  LAYER,ROW,COL
 ---------------------------------------------------------------------------
  1   6.559      0   4.181      0  -1.870      0  -1.164      0 -0.8766    
   ( 50,  1, 52)  ( 50,  1, 45)  ( 49,  1, 44)  ( 50,  1, 64)  ( 50,  1, 42)
  0 -0.4709      0 -0.3440      0  0.1725      0  0.1064      0  0.7986E-01
   ( 49,  1, 53)  ( 49,  1, 49)  ( 50,  1, 42)  ( 49,  1, 53)  ( 49,  1, 48)
  0 -0.4303E-01  0 -0.3814E-01  0  0.2840E-01  0 -0.2345E-01  0  0.2689E-01
   ( 49,  1, 61)  ( 49,  1, 52)  ( 39,  1, 99)  ( 44,  1, 99)  (  1,  1, 99)
  0  0.2445E-01  0  0.2503E-01  0  0.2208E-01  0 -0.2084E-01  1 -0.9099E-02
   ( 46,  1, 99)  ( 43,  1, 99)  ( 39,  1, 99)  ( 44,  1, 99)  (  1,  1, 99)


 FLOW MODEL IS TRANSIENT
 FLOW MODEL CONTAINS CONSTANT-HEAD CELLS


 MAXIMUM STEPSIZE DURING WHICH ANY PARTICLE CANNOT MOVE MORE THAN ONE CELL
 =  9.524    (WHEN MIN. R.F.=1)  AT K=   1, I=   1, J=  99

 MAXIMUM STEPSIZE WHICH MEETS STABILITY CRITERION OF THE ADVECTION TERM
 (FOR PURE FINITE-DIFFERENCE OPTION, MIXELM=0) 
 =  9.285    (WHEN MIN. R.F.=1)  AT K=   1, I=   1, J=  99


 TOTAL NUMBER OF POINT SOURCES/SINKS PRESENT IN THE FLOW MODEL =       100

 MAXIMUM STEPSIZE WHICH MEETS STABILITY CRITERION OF THE SINK & SOURCE TERM
 =  122.8    (WHEN MIN. R.F.=1)  AT K=   1, I=   1, J=   1

 MAXIMUM STEPSIZE WHICH MEETS STABILITY CRITERION OF THE DISPERSION TERM
 =  2.121    (WHEN MIN. R.F.=1)  AT K=   1, I=   1, J=  99
     5 CALLS TO GCG PACKAGE FOR TRANSPORT TIME STEP   2 IN FLOW TIME STEP   1 STRESS PERIOD   6
    15 TOTAL ITERATIONS
 
 SOLVING FOR HEAD 


     2 CALLS TO PCG ROUTINE FOR TIME STEP   1 IN STRESS PERIOD    6
    20 TOTAL ITERATIONS

 MAXIMUM HEAD CHANGE FOR EACH ITERATION (1 INDICATES THE FIRST INNER ITERATION):

    HEAD CHANGE    HEAD CHANGE    HEAD CHANGE    HEAD CHANGE    HEAD CHANGE 
   LAYER,ROW,COL  LAYER,ROW,COL  LAYER,ROW,COL  LAYER,ROW,COL  LAYER,ROW,COL
 ---------------------------------------------------------------------------
  1  0.9211E-03  0  0.2892E-03  0  0.1520E-03  0  0.8391E-04  0  0.5687E-04
   ( 50,  1, 50)  ( 48,  1, 58)  ( 46,  1, 64)  ( 43,  1, 69)  ( 39,  1, 71)
  0  0.3335E-04  0 -0.2120E-04  0 -0.1197E-04  0 -0.8286E-05  0 -0.5356E-05
   ( 50,  1, 69)  (  2,  1, 73)  (  1,  1, 77)  (  1,  1, 55)  (  2,  1, 43)
  0 -0.4448E-05  0 -0.3184E-05  0 -0.1992E-05  0 -0.1303E-05  0 -0.1195E-05
   (  2,  1, 47)  (  3,  1, 38)  (  5,  1, 33)  (  5,  1, 25)  (  4,  1,  7)
  0 -0.1347E-05  0 -0.1444E-05  0 -0.1262E-05  0 -0.9148E-06  1 -0.2491E-06
   (  4,  1,  4)  (  7,  1,  1)  (  2,  1,  3)  ( 46,  1,  1)  ( 35,  1,  8)

 MAXIMUM RESIDUAL FOR EACH ITERATION (1 INDICATES THE FIRST INNER ITERATION):

    RESIDUAL       RESIDUAL       RESIDUAL       RESIDUAL       RESIDUAL    
   LAYER,ROW,COL  LAYER,ROW,COL  LAYER,ROW,COL  LAYER,ROW,COL  LAYER,ROW,COL
 ---------------------------------------------------------------------------
  1   6.681      0   4.250      0  -1.881      0  -1.174      0 -0.8894    
   ( 50,  1, 52)  ( 50,  1, 44)  ( 49,  1, 44)  ( 50,  1, 64)  ( 50,  1, 42)
  0 -0.4915      0 -0.3515      0  0.1694      0  0.1084      0  0.8133E-01
   ( 49,  1, 53)  ( 49,  1, 49)  ( 50,  1, 42)  ( 49,  1, 53)  ( 49,  1, 48)
  0 -0.4352E-01  0 -0.3803E-01  0  0.2844E-01  0 -0.2343E-01  0  0.2257E-01
   ( 49,  1, 61)  ( 49,  1, 52)  ( 39,  1, 99)  ( 45,  1, 99)  (  1,  1, 99)
  0  0.2376E-01  0  0.2452E-01  0  0.2161E-01  0 -0.2042E-01  1 -0.8258E-02
   ( 46,  1, 99)  ( 43,  1, 99)  ( 39,  1, 99)  ( 44,  1, 99)  (  1,  1, 99)


 FLOW MODEL IS TRANSIENT
 FLOW MODEL CONTAINS CONSTANT-HEAD CELLS


 MAXIMUM STEPSIZE DURING WHICH ANY PARTICLE CANNOT MOVE MORE THAN ONE CELL
 =  9.530    (WHEN MIN. R.F.=1)  AT K=   1, I=   1, J=  99

 MAXIMUM STEPSIZE WHICH MEETS STABILITY CRITERION OF THE ADVECTION TERM
 (FOR PURE FINITE-DIFFERENCE OPTION, MIXELM=0) 
 =  9.292    (WHEN MIN. R.F.=1)  AT K=   1, I=   1, J=  99


 TOTAL NUMBER OF POINT SOURCES/SINKS PRESENT IN THE FLOW MODEL =       100

 MAXIMUM STEPSIZE WHICH MEETS STABILITY CRITERION OF THE SINK & SOURCE TERM
 =  122.8    (WHEN MIN. R.F.=1)  AT K=   1, I=   1, J=   1

 MAXIMUM STEPSIZE WHICH MEETS STABILITY CRITERION OF THE DISPERSION TERM
 =  2.122    (WHEN MIN. R.F.=1)  AT K=   1, I=   1, J=  99
     5 CALLS TO GCG PACKAGE FOR TRANSPORT TIME STEP   3 IN FLOW TIME STEP   1 STRESS PERIOD   6
    15 TOTAL ITERATIONS
 
 SOLVING FOR HEAD 


     2 CALLS TO PCG ROUTINE FOR TIME STEP   1 IN STRESS PERIOD    6
    20 TOTAL ITERATIONS

 MAXIMUM HEAD CHANGE FOR EACH ITERATION (1 INDICATES THE FIRST INNER ITERATION):

    HEAD CHANGE    HEAD CHANGE    HEAD CHANGE    HEAD CHANGE    HEAD CHANGE 
   LAYER,ROW,COL  LAYER,ROW,COL  LAYER,ROW,COL  LAYER,ROW,COL  LAYER,ROW,COL
 ---------------------------------------------------------------------------
  1  0.9213E-03  0  0.2895E-03  0  0.1519E-03  0  0.8410E-04  0  0.5703E-04
   ( 50,  1, 50)  ( 48,  1, 58)  ( 46,  1, 64)  ( 43,  1, 68)  ( 39,  1, 71)
  0  0.3348E-04  0 -0.2070E-04  0 -0.1180E-04  0 -0.8195E-05  0 -0.5291E-05
   ( 50,  1, 69)  (  2,  1, 72)  (  1,  1, 77)  (  1,  1, 55)  (  2,  1, 42)
  0 -0.4332E-05  0 -0.3108E-05  0 -0.1950E-05  0 -0.1251E-05  0 -0.1154E-05
   (  2,  1, 47)  (  3,  1, 38)  (  2,  1, 43)  (  4,  1, 23)  (  4,  1,  7)
  0 -0.1264E-05  0 -0.1355E-05  0 -0.1207E-05  0 -0.8860E-06  1 -0.2390E-06
   (  5,  1,  4)  (  7,  1,  1)  (  2,  1,  3)  (  5,  1,  4)  ( 42,  1,  2)

 MAXIMUM RESIDUAL FOR EACH ITERATION (1 INDICATES THE FIRST INNER ITERATION):

    RESIDUAL       RESIDUAL       RESIDUAL       RESIDUAL       RESIDUAL    
   LAYER,ROW,COL  LAYER,ROW,COL  LAYER,ROW,COL  LAYER,ROW,COL  LAYER,ROW,COL
 ---------------------------------------------------------------------------
  1   6.697      0   4.283      0  -1.869      0  -1.174      0 -0.8896    
   ( 50,  1, 52)  ( 50,  1, 44)  ( 49,  1, 44)  ( 50,  1, 64)  ( 50,  1, 42)
  0 -0.4918      0 -0.3513      0  0.1667      0  0.1079      0  0.8108E-01
   ( 49,  1, 53)  ( 49,  1, 49)  ( 50,  1, 42)  ( 49,  1, 53)  ( 49,  1, 48)
  0 -0.4331E-01  0 -0.3777E-01  0  0.2789E-01  0 -0.2259E-01  0  0.2154E-01
   ( 49,  1, 61)  ( 49,  1, 52)  ( 39,  1, 99)  ( 45,  1, 99)  (  1,  1, 99)
  0  0.2217E-01  0  0.2288E-01  0  0.2032E-01  0 -0.1937E-01  1 -0.7911E-02
   ( 46,  1, 99)  ( 43,  1, 99)  ( 39,  1, 99)  ( 44,  1, 99)  (  1,  1, 99)


 FLOW MODEL IS TRANSIENT
 FLOW MODEL CONTAINS CONSTANT-HEAD CELLS


 MAXIMUM STEPSIZE DURING WHICH ANY PARTICLE CANNOT MOVE MORE THAN ONE CELL
 =  9.535    (WHEN MIN. R.F.=1)  AT K=   1, I=   1, J=  99

 MAXIMUM STEPSIZE WHICH MEETS STABILITY CRITERION OF THE ADVECTION TERM
 (FOR PURE FINITE-DIFFERENCE OPTION, MIXELM=0) 
 =  9.298    (WHEN MIN. R.F.=1)  AT K=   1, I=   1, J=  99


 TOTAL NUMBER OF POINT SOURCES/SINKS PRESENT IN THE FLOW MODEL =       100

 MAXIMUM STEPSIZE WHICH MEETS STABILITY CRITERION OF THE SINK & SOURCE TERM
 =  122.8    (WHEN MIN. R.F.=1)  AT K=   1, I=   1, J=   1

 MAXIMUM STEPSIZE WHICH MEETS STABILITY CRITERION OF THE DISPERSION TERM
 =  2.123    (WHEN MIN. R.F.=1)  AT K=   1, I=   1, J=  99
     5 CALLS TO GCG PACKAGE FOR TRANSPORT TIME STEP   4 IN FLOW TIME STEP   1 STRESS PERIOD   6
    15 TOTAL ITERATIONS
 
 SOLVING FOR HEAD 


     2 CALLS TO PCG ROUTINE FOR TIME STEP   1 IN STRESS PERIOD    6
    20 TOTAL ITERATIONS

 MAXIMUM HEAD CHANGE FOR EACH ITERATION (1 INDICATES THE FIRST INNER ITERATION):

    HEAD CHANGE    HEAD CHANGE    HEAD CHANGE    HEAD CHANGE    HEAD CHANGE 
   LAYER,ROW,COL  LAYER,ROW,COL  LAYER,ROW,COL  LAYER,ROW,COL  LAYER,ROW,COL
 ---------------------------------------------------------------------------
  1  0.9188E-03  0  0.2886E-03  0  0.1514E-03  0  0.8397E-04  0  0.5696E-04
   ( 50,  1, 50)  ( 48,  1, 58)  ( 46,  1, 63)  ( 43,  1, 68)  ( 39,  1, 71)
  0  0.3346E-04  0 -0.2031E-04  0 -0.1161E-04  0 -0.7992E-05  0 -0.5338E-05
   ( 50,  1, 68)  (  2,  1, 72)  (  1,  1, 77)  (  1,  1, 55)  (  2,  1, 42)
  0 -0.4383E-05  0 -0.3124E-05  0 -0.1959E-05  0 -0.1283E-05  0 -0.1196E-05
   (  2,  1, 47)  (  3,  1, 38)  (  2,  1, 43)  (  4,  1, 23)  (  3,  1,  6)
  0 -0.1316E-05  0 -0.1412E-05  0 -0.1240E-05  0 -0.8872E-06  1 -0.2512E-06
   (  5,  1,  4)  (  7,  1,  1)  (  2,  1,  3)  ( 46,  1,  1)  ( 35,  1,  8)

 MAXIMUM RESIDUAL FOR EACH ITERATION (1 INDICATES THE FIRST INNER ITERATION):

    RESIDUAL       RESIDUAL       RESIDUAL       RESIDUAL       RESIDUAL    
   LAYER,ROW,COL  LAYER,ROW,COL  LAYER,ROW,COL  LAYER,ROW,COL  LAYER,ROW,COL
 ---------------------------------------------------------------------------
  1   6.677      0   4.290      0  -1.844      0  -1.171      0 -0.8873    
   ( 50,  1, 52)  ( 50,  1, 44)  ( 49,  1, 44)  ( 50,  1, 64)  ( 50,  1, 42)
  0 -0.4908      0 -0.3509      0  0.1648      0  0.1077      0  0.8121E-01
   ( 49,  1, 53)  ( 49,  1, 49)  ( 50,  1, 42)  ( 49,  1, 53)  ( 49,  1, 48)
  0 -0.4335E-01  0 -0.3799E-01  0  0.2792E-01  0 -0.2274E-01  0  0.2206E-01
   ( 49,  1, 61)  ( 49,  1, 52)  ( 39,  1, 99)  ( 45,  1, 99)  (  1,  1, 99)
  0  0.2272E-01  0  0.2342E-01  0  0.2081E-01  0 -0.1968E-01  1 -0.8123E-02
   ( 46,  1, 99)  ( 43,  1, 99)  ( 39,  1, 99)  ( 44,  1, 99)  (  1,  1, 99)


 FLOW MODEL IS TRANSIENT
 FLOW MODEL CONTAINS CONSTANT-HEAD CELLS


 MAXIMUM STEPSIZE DURING WHICH ANY PARTICLE CANNOT MOVE MORE THAN ONE CELL
 =  9.540    (WHEN MIN. R.F.=1)  AT K=   1, I=   1, J=  99

 MAXIMUM STEPSIZE WHICH MEETS STABILITY CRITERION OF THE ADVECTION TERM
 (FOR PURE FINITE-DIFFERENCE OPTION, MIXELM=0) 
 =  9.302    (WHEN MIN. R.F.=1)  AT K=   1, I=   1, J=  99


 TOTAL NUMBER OF POINT SOURCES/SINKS PRESENT IN THE FLOW MODEL =       100

 MAXIMUM STEPSIZE WHICH MEETS STABILITY CRITERION OF THE SINK & SOURCE TERM
 =  122.8    (WHEN MIN. R.F.=1)  AT K=   1, I=   1, J=   1

 MAXIMUM STEPSIZE WHICH MEETS STABILITY CRITERION OF THE DISPERSION TERM
 =  2.124    (WHEN MIN. R.F.=1)  AT K=   1, I=   1, J=  99
     5 CALLS TO GCG PACKAGE FOR TRANSPORT TIME STEP   5 IN FLOW TIME STEP   1 STRESS PERIOD   6
    15 TOTAL ITERATIONS
 
 SOLVING FOR HEAD 


     2 CALLS TO PCG ROUTINE FOR TIME STEP   1 IN STRESS PERIOD    6
    20 TOTAL ITERATIONS

 MAXIMUM HEAD CHANGE FOR EACH ITERATION (1 INDICATES THE FIRST INNER ITERATION):

    HEAD CHANGE    HEAD CHANGE    HEAD CHANGE    HEAD CHANGE    HEAD CHANGE 
   LAYER,ROW,COL  LAYER,ROW,COL  LAYER,ROW,COL  LAYER,ROW,COL  LAYER,ROW,COL
 ---------------------------------------------------------------------------
  1  0.9158E-03  0  0.2874E-03  0  0.1510E-03  0  0.8379E-04  0  0.5682E-04
   ( 50,  1, 50)  ( 48,  1, 58)  ( 46,  1, 63)  ( 43,  1, 68)  ( 39,  1, 71)
  0  0.3343E-04  0 -0.2010E-04  0 -0.1154E-04  0 -0.7931E-05  0 -0.5293E-05
   ( 50,  1, 68)  (  2,  1, 72)  (  1,  1, 77)  (  1,  1, 55)  (  2,  1, 42)
  0 -0.4368E-05  0 -0.3118E-05  0 -0.1948E-05  0 -0.1281E-05  0 -0.1192E-05
   (  2,  1, 47)  (  3,  1, 38)  (  5,  1, 33)  (  4,  1, 23)  (  4,  1,  6)
  0 -0.1311E-05  0 -0.1413E-05  0 -0.1239E-05  0 -0.8840E-06  1 -0.2528E-06
   (  5,  1,  4)  (  7,  1,  1)  (  2,  1,  3)  ( 46,  1,  1)  ( 35,  1,  8)

 MAXIMUM RESIDUAL FOR EACH ITERATION (1 INDICATES THE FIRST INNER ITERATION):

    RESIDUAL       RESIDUAL       RESIDUAL       RESIDUAL       RESIDUAL    
   LAYER,ROW,COL  LAYER,ROW,COL  LAYER,ROW,COL  LAYER,ROW,COL  LAYER,ROW,COL
 ---------------------------------------------------------------------------
  1   6.655      0   4.287      0  -1.848      0  -1.168      0 -0.8847    
   ( 50,  1, 52)  ( 50,  1, 44)  ( 49,  1, 43)  ( 50,  1, 64)  ( 50,  1, 41)
  0 -0.4906      0 -0.3499      0  0.1642      0  0.1074      0  0.8096E-01
   ( 49,  1, 52)  ( 49,  1, 49)  ( 50,  1, 41)  ( 49,  1, 53)  ( 49,  1, 48)
  0 -0.4324E-01  0 -0.3790E-01  0  0.2768E-01  0 -0.2254E-01  0  0.2189E-01
   ( 49,  1, 61)  ( 49,  1, 52)  ( 39,  1, 99)  ( 45,  1, 99)  (  1,  1, 99)
  0  0.2248E-01  0  0.2327E-01  0  0.2067E-01  0 -0.1952E-01  1 -0.8150E-02
   ( 46,  1, 99)  ( 43,  1, 99)  ( 39,  1, 99)  ( 44,  1, 99)  (  1,  1, 99)


 FLOW MODEL IS TRANSIENT
 FLOW MODEL CONTAINS CONSTANT-HEAD CELLS


 MAXIMUM STEPSIZE DURING WHICH ANY PARTICLE CANNOT MOVE MORE THAN ONE CELL
 =  9.545    (WHEN MIN. R.F.=1)  AT K=   1, I=   1, J=  99

 MAXIMUM STEPSIZE WHICH MEETS STABILITY CRITERION OF THE ADVECTION TERM
 (FOR PURE FINITE-DIFFERENCE OPTION, MIXELM=0) 
 =  9.307    (WHEN MIN. R.F.=1)  AT K=   1, I=   1, J=  99


 TOTAL NUMBER OF POINT SOURCES/SINKS PRESENT IN THE FLOW MODEL =       100

 MAXIMUM STEPSIZE WHICH MEETS STABILITY CRITERION OF THE SINK & SOURCE TERM
 =  122.8    (WHEN MIN. R.F.=1)  AT K=   1, I=   1, J=   1

 MAXIMUM STEPSIZE WHICH MEETS STABILITY CRITERION OF THE DISPERSION TERM
 =  2.125    (WHEN MIN. R.F.=1)  AT K=   1, I=   1, J=  99
     5 CALLS TO GCG PACKAGE FOR TRANSPORT TIME STEP   6 IN FLOW TIME STEP   1 STRESS PERIOD   6
    15 TOTAL ITERATIONS
 
 SOLVING FOR HEAD 


     2 CALLS TO PCG ROUTINE FOR TIME STEP   1 IN STRESS PERIOD    6
    16 TOTAL ITERATIONS

 MAXIMUM HEAD CHANGE FOR EACH ITERATION (1 INDICATES THE FIRST INNER ITERATION):

    HEAD CHANGE    HEAD CHANGE    HEAD CHANGE    HEAD CHANGE    HEAD CHANGE 
   LAYER,ROW,COL  LAYER,ROW,COL  LAYER,ROW,COL  LAYER,ROW,COL  LAYER,ROW,COL
 ---------------------------------------------------------------------------
  1  0.9123E-03  0  0.2862E-03  0  0.1506E-03  0  0.8363E-04  0  0.5677E-04
   ( 50,  1, 50)  ( 48,  1, 58)  ( 46,  1, 63)  ( 43,  1, 68)  ( 39,  1, 71)
  0  0.3343E-04  0 -0.1985E-04  0 -0.1144E-04  0 -0.7774E-05  0 -0.5116E-05
   ( 50,  1, 68)  (  2,  1, 72)  (  1,  1, 76)  (  1,  1, 55)  (  2,  1, 42)
  0 -0.4218E-05  0 -0.2936E-05  0 -0.1764E-05  0 -0.1088E-05  0 -0.9332E-06
   (  2,  1, 47)  (  3,  1, 38)  (  2,  1, 42)  (  4,  1, 23)  (  4,  1,  6)
  1 -0.3438E-06
   (  3,  1, 86)

 MAXIMUM RESIDUAL FOR EACH ITERATION (1 INDICATES THE FIRST INNER ITERATION):

    RESIDUAL       RESIDUAL       RESIDUAL       RESIDUAL       RESIDUAL    
   LAYER,ROW,COL  LAYER,ROW,COL  LAYER,ROW,COL  LAYER,ROW,COL  LAYER,ROW,COL
 ---------------------------------------------------------------------------
  1   6.638      0   4.273      0  -1.861      0  -1.165      0 -0.8846    
   ( 50,  1, 51)  ( 50,  1, 44)  ( 49,  1, 43)  ( 50,  1, 63)  ( 50,  1, 41)
  0 -0.4900      0 -0.3476      0  0.1642      0  0.1062      0  0.7976E-01
   ( 49,  1, 52)  ( 49,  1, 49)  ( 50,  1, 41)  ( 49,  1, 53)  ( 49,  1, 48)
  0 -0.4213E-01  0 -0.3653E-01  0  0.2579E-01  0 -0.2007E-01  0  0.1749E-01
   ( 49,  1, 60)  ( 49,  1, 52)  ( 39,  1, 99)  ( 45,  1, 99)  (  1,  1, 98)
  1  0.8641E-02
   (  1,  1, 99)


 FLOW MODEL IS TRANSIENT
 FLOW MODEL CONTAINS CONSTANT-HEAD CELLS


 MAXIMUM STEPSIZE DURING WHICH ANY PARTICLE CANNOT MOVE MORE THAN ONE CELL
 =  9.549    (WHEN MIN. R.F.=1)  AT K=   1, I=   1, J=  99

 MAXIMUM STEPSIZE WHICH MEETS STABILITY CRITERION OF THE ADVECTION TERM
 (FOR PURE FINITE-DIFFERENCE OPTION, MIXELM=0) 
 =  9.311    (WHEN MIN. R.F.=1)  AT K=   1, I=   1, J=  99


 TOTAL NUMBER OF POINT SOURCES/SINKS PRESENT IN THE FLOW MODEL =       100

 MAXIMUM STEPSIZE WHICH MEETS STABILITY CRITERION OF THE SINK & SOURCE TERM
 =  122.8    (WHEN MIN. R.F.=1)  AT K=   1, I=   1, J=   1

 MAXIMUM STEPSIZE WHICH MEETS STABILITY CRITERION OF THE DISPERSION TERM
 =  2.126    (WHEN MIN. R.F.=1)  AT K=   1, I=   1, J=  99
     5 CALLS TO GCG PACKAGE FOR TRANSPORT TIME STEP   7 IN FLOW TIME STEP   1 STRESS PERIOD   6
    15 TOTAL ITERATIONS
 
 SOLVING FOR HEAD 


     2 CALLS TO PCG ROUTINE FOR TIME STEP   1 IN STRESS PERIOD    6
    20 TOTAL ITERATIONS

 MAXIMUM HEAD CHANGE FOR EACH ITERATION (1 INDICATES THE FIRST INNER ITERATION):

    HEAD CHANGE    HEAD CHANGE    HEAD CHANGE    HEAD CHANGE    HEAD CHANGE 
   LAYER,ROW,COL  LAYER,ROW,COL  LAYER,ROW,COL  LAYER,ROW,COL  LAYER,ROW,COL
 ---------------------------------------------------------------------------
  1  0.9088E-03  0  0.2853E-03  0  0.1504E-03  0  0.8360E-04  0  0.5690E-04
   ( 50,  1, 49)  ( 48,  1, 57)  ( 46,  1, 63)  ( 43,  1, 68)  ( 39,  1, 70)
  0  0.3329E-04  0 -0.1955E-04  0 -0.1120E-04  0 -0.7682E-05  0 -0.5263E-05
   ( 50,  1, 68)  (  2,  1, 72)  (  1,  1, 76)  (  1,  1, 55)  (  2,  1, 41)
  0 -0.4466E-05  0 -0.3179E-05  0 -0.1983E-05  0 -0.1299E-05  0 -0.1218E-05
   (  2,  1, 47)  (  3,  1, 38)  (  5,  1, 33)  (  4,  1, 23)  (  4,  1,  6)
  0 -0.1351E-05  0 -0.1462E-05  0 -0.1263E-05  0 -0.9062E-06  1 -0.2634E-06
   (  5,  1,  4)  (  7,  1,  1)  (  3,  1,  3)  ( 46,  1,  1)  ( 35,  1,  8)

 MAXIMUM RESIDUAL FOR EACH ITERATION (1 INDICATES THE FIRST INNER ITERATION):

    RESIDUAL       RESIDUAL       RESIDUAL       RESIDUAL       RESIDUAL    
   LAYER,ROW,COL  LAYER,ROW,COL  LAYER,ROW,COL  LAYER,ROW,COL  LAYER,ROW,COL
 ---------------------------------------------------------------------------
  1   6.627      0   4.258      0  -1.873      0  -1.163      0 -0.8861    
   ( 50,  1, 51)  ( 50,  1, 44)  ( 49,  1, 43)  ( 50,  1, 63)  ( 50,  1, 41)
  0 -0.4910      0 -0.3475      0  0.1667      0  0.1069      0  0.8154E-01
   ( 49,  1, 52)  ( 49,  1, 48)  ( 50,  1, 41)  ( 49,  1, 53)  ( 49,  1, 48)
  0  0.4345E-01  0 -0.3829E-01  0  0.2744E-01  0 -0.2238E-01  0  0.2214E-01
   ( 49,  1, 40)  ( 49,  1, 52)  ( 39,  1, 99)  ( 45,  1, 99)  (  1,  1, 99)
  0  0.2253E-01  0  0.2326E-01  0  0.2072E-01  0 -0.1946E-01  1 -0.8289E-02
   ( 46,  1, 99)  ( 43,  1, 99)  ( 39,  1, 99)  ( 44,  1, 99)  (  1,  1, 99)


 FLOW MODEL IS TRANSIENT
 FLOW MODEL CONTAINS CONSTANT-HEAD CELLS


 MAXIMUM STEPSIZE DURING WHICH ANY PARTICLE CANNOT MOVE MORE THAN ONE CELL
 =  9.553    (WHEN MIN. R.F.=1)  AT K=   1, I=   1, J=  99

 MAXIMUM STEPSIZE WHICH MEETS STABILITY CRITERION OF THE ADVECTION TERM
 (FOR PURE FINITE-DIFFERENCE OPTION, MIXELM=0) 
 =  9.315    (WHEN MIN. R.F.=1)  AT K=   1, I=   1, J=  99


 TOTAL NUMBER OF POINT SOURCES/SINKS PRESENT IN THE FLOW MODEL =       100

 MAXIMUM STEPSIZE WHICH MEETS STABILITY CRITERION OF THE SINK & SOURCE TERM
 =  122.8    (WHEN MIN. R.F.=1)  AT K=   1, I=   1, J=   1

 MAXIMUM STEPSIZE WHICH MEETS STABILITY CRITERION OF THE DISPERSION TERM
 =  2.127    (WHEN MIN. R.F.=1)  AT K=   1, I=   1, J=  99
     5 CALLS TO GCG PACKAGE FOR TRANSPORT TIME STEP   8 IN FLOW TIME STEP   1 STRESS PERIOD   6
    15 TOTAL ITERATIONS
 
 SOLVING FOR HEAD 


     2 CALLS TO PCG ROUTINE FOR TIME STEP   1 IN STRESS PERIOD    6
    20 TOTAL ITERATIONS

 MAXIMUM HEAD CHANGE FOR EACH ITERATION (1 INDICATES THE FIRST INNER ITERATION):

    HEAD CHANGE    HEAD CHANGE    HEAD CHANGE    HEAD CHANGE    HEAD CHANGE 
   LAYER,ROW,COL  LAYER,ROW,COL  LAYER,ROW,COL  LAYER,ROW,COL  LAYER,ROW,COL
 ---------------------------------------------------------------------------
  1  0.9068E-03  0  0.2842E-03  0  0.1497E-03  0  0.8319E-04  0  0.5652E-04
   ( 50,  1, 49)  ( 48,  1, 57)  ( 46,  1, 63)  ( 43,  1, 68)  ( 39,  1, 70)
  0  0.3328E-04  0 -0.1971E-04  0 -0.1140E-04  0 -0.7787E-05  0 -0.5117E-05
   ( 50,  1, 68)  (  2,  1, 72)  (  1,  1, 76)  (  1,  1, 55)  (  2,  1, 41)
  0 -0.4322E-05  0 -0.3065E-05  0 -0.1889E-05  0 -0.1216E-05  0 -0.1102E-05
   (  2,  1, 46)  (  3,  1, 38)  (  5,  1, 33)  (  4,  1, 23)  (  4,  1,  6)
  0 -0.1186E-05  0 -0.1293E-05  0 -0.1153E-05  0 -0.8413E-06  1 -0.2460E-06
   (  1,  1,  8)  (  7,  1,  1)  (  2,  1,  3)  (  1,  1,  3)  ( 35,  1,  8)

 MAXIMUM RESIDUAL FOR EACH ITERATION (1 INDICATES THE FIRST INNER ITERATION):

    RESIDUAL       RESIDUAL       RESIDUAL       RESIDUAL       RESIDUAL    
   LAYER,ROW,COL  LAYER,ROW,COL  LAYER,ROW,COL  LAYER,ROW,COL  LAYER,ROW,COL
 ---------------------------------------------------------------------------
  1   6.613      0   4.231      0  -1.878      0  -1.163      0 -0.8843    
   ( 50,  1, 51)  ( 50,  1, 44)  ( 49,  1, 43)  ( 50,  1, 63)  ( 50,  1, 41)
  0 -0.4890      0 -0.3473      0  0.1646      0  0.1058      0  0.7981E-01
   ( 49,  1, 52)  ( 49,  1, 48)  ( 50,  1, 41)  ( 49,  1, 52)  ( 49,  1, 48)
  0 -0.4264E-01  0 -0.3743E-01  0  0.2637E-01  0 -0.2116E-01  0  0.1982E-01
   ( 49,  1, 60)  ( 49,  1, 52)  ( 39,  1, 99)  ( 45,  1, 99)  (  1,  1, 99)
  0  0.2009E-01  0  0.2089E-01  0  0.1874E-01  0 -0.1778E-01  1 -0.7689E-02
   ( 46,  1, 99)  ( 43,  1, 99)  ( 39,  1, 99)  ( 44,  1, 99)  (  1,  1, 99)


 FLOW MODEL IS TRANSIENT
 FLOW MODEL CONTAINS CONSTANT-HEAD CELLS


 MAXIMUM STEPSIZE DURING WHICH ANY PARTICLE CANNOT MOVE MORE THAN ONE CELL
 =  9.557    (WHEN MIN. R.F.=1)  AT K=   1, I=   1, J=  99

 MAXIMUM STEPSIZE WHICH MEETS STABILITY CRITERION OF THE ADVECTION TERM
 (FOR PURE FINITE-DIFFERENCE OPTION, MIXELM=0) 
 =  9.318    (WHEN MIN. R.F.=1)  AT K=   1, I=   1, J=  99


 TOTAL NUMBER OF POINT SOURCES/SINKS PRESENT IN THE FLOW MODEL =       100

 MAXIMUM STEPSIZE WHICH MEETS STABILITY CRITERION OF THE SINK & SOURCE TERM
 =  122.8    (WHEN MIN. R.F.=1)  AT K=   1, I=   1, J=   1

 MAXIMUM STEPSIZE WHICH MEETS STABILITY CRITERION OF THE DISPERSION TERM
 =  2.128    (WHEN MIN. R.F.=1)  AT K=   1, I=   1, J=  99
     5 CALLS TO GCG PACKAGE FOR TRANSPORT TIME STEP   9 IN FLOW TIME STEP   1 STRESS PERIOD   6
    15 TOTAL ITERATIONS
 
 SOLVING FOR HEAD 


     2 CALLS TO PCG ROUTINE FOR TIME STEP   1 IN STRESS PERIOD    6
    20 TOTAL ITERATIONS

 MAXIMUM HEAD CHANGE FOR EACH ITERATION (1 INDICATES THE FIRST INNER ITERATION):

    HEAD CHANGE    HEAD CHANGE    HEAD CHANGE    HEAD CHANGE    HEAD CHANGE 
   LAYER,ROW,COL  LAYER,ROW,COL  LAYER,ROW,COL  LAYER,ROW,COL  LAYER,ROW,COL
 ---------------------------------------------------------------------------
  1  0.9045E-03  0  0.2832E-03  0  0.1492E-03  0  0.8298E-04  0  0.5646E-04
   ( 50,  1, 49)  ( 48,  1, 57)  ( 46,  1, 63)  ( 43,  1, 68)  ( 39,  1, 70)
  0  0.3318E-04  0 -0.1952E-04  0 -0.1127E-04  0 -0.7633E-05  0 -0.5082E-05
   ( 50,  1, 68)  (  2,  1, 72)  (  1,  1, 76)  (  1,  1, 54)  (  2,  1, 41)
  0 -0.4267E-05  0 -0.2991E-05  0 -0.1828E-05  0 -0.1154E-05  0 -0.1016E-05
   (  2,  1, 46)  (  3,  1, 38)  (  5,  1, 33)  (  6,  1, 26)  (  4,  1,  6)
  0 -0.1073E-05  0 -0.1175E-05  0 -0.1067E-05  0 -0.8079E-06  1 -0.2318E-06
   (  5,  1,  4)  (  7,  1,  1)  (  3,  1,  3)  (  1,  1,  4)  ( 35,  1,  8)

 MAXIMUM RESIDUAL FOR EACH ITERATION (1 INDICATES THE FIRST INNER ITERATION):

    RESIDUAL       RESIDUAL       RESIDUAL       RESIDUAL       RESIDUAL    
   LAYER,ROW,COL  LAYER,ROW,COL  LAYER,ROW,COL  LAYER,ROW,COL  LAYER,ROW,COL
 ---------------------------------------------------------------------------
  1   6.596      0   4.200      0  -1.875      0  -1.158      0 -0.8825    
   ( 50,  1, 51)  ( 50,  1, 44)  ( 49,  1, 43)  ( 50,  1, 63)  ( 50,  1, 41)
  0 -0.4888      0 -0.3473      0  0.1647      0  0.1053      0  0.7921E-01
   ( 49,  1, 52)  ( 49,  1, 48)  ( 50,  1, 41)  ( 49,  1, 52)  ( 49,  1, 48)
  0 -0.4225E-01  0 -0.3692E-01  0  0.2552E-01  0 -0.2026E-01  0  0.1859E-01
   ( 49,  1, 60)  ( 49,  1, 52)  ( 39,  1, 99)  ( 45,  1, 99)  (  1,  1, 98)
  0  0.1826E-01  0  0.1890E-01  0  0.1700E-01  0 -0.1629E-01  1 -0.7169E-02
   ( 46,  1, 99)  ( 43,  1, 99)  ( 39,  1, 99)  ( 45,  1, 99)  (  1,  1, 99)


 FLOW MODEL IS TRANSIENT
 FLOW MODEL CONTAINS CONSTANT-HEAD CELLS


 MAXIMUM STEPSIZE DURING WHICH ANY PARTICLE CANNOT MOVE MORE THAN ONE CELL
 =  9.561    (WHEN MIN. R.F.=1)  AT K=   1, I=   1, J=  99

 MAXIMUM STEPSIZE WHICH MEETS STABILITY CRITERION OF THE ADVECTION TERM
 (FOR PURE FINITE-DIFFERENCE OPTION, MIXELM=0) 
 =  9.322    (WHEN MIN. R.F.=1)  AT K=   1, I=   1, J=  99


 TOTAL NUMBER OF POINT SOURCES/SINKS PRESENT IN THE FLOW MODEL =       100

 MAXIMUM STEPSIZE WHICH MEETS STABILITY CRITERION OF THE SINK & SOURCE TERM
 =  122.8    (WHEN MIN. R.F.=1)  AT K=   1, I=   1, J=   1

 MAXIMUM STEPSIZE WHICH MEETS STABILITY CRITERION OF THE DISPERSION TERM
 =  2.129    (WHEN MIN. R.F.=1)  AT K=   1, I=   1, J=  99
     5 CALLS TO GCG PACKAGE FOR TRANSPORT TIME STEP  10 IN FLOW TIME STEP   1 STRESS PERIOD   6
    15 TOTAL ITERATIONS
 
 SOLVING FOR HEAD 


     2 CALLS TO PCG ROUTINE FOR TIME STEP   1 IN STRESS PERIOD    6
    20 TOTAL ITERATIONS

 MAXIMUM HEAD CHANGE FOR EACH ITERATION (1 INDICATES THE FIRST INNER ITERATION):

    HEAD CHANGE    HEAD CHANGE    HEAD CHANGE    HEAD CHANGE    HEAD CHANGE 
   LAYER,ROW,COL  LAYER,ROW,COL  LAYER,ROW,COL  LAYER,ROW,COL  LAYER,ROW,COL
 ---------------------------------------------------------------------------
  1  0.9020E-03  0  0.2821E-03  0  0.1487E-03  0  0.8278E-04  0  0.5642E-04
   ( 50,  1, 49)  ( 48,  1, 57)  ( 46,  1, 63)  ( 43,  1, 68)  ( 39,  1, 70)
  0  0.3308E-04  0 -0.1950E-04  0 -0.1128E-04  0 -0.7666E-05  0 -0.5127E-05
   ( 50,  1, 68)  (  2,  1, 72)  (  1,  1, 76)  (  1,  1, 54)  (  2,  1, 41)
  0 -0.4349E-05  0 -0.3075E-05  0 -0.1912E-05  0 -0.1245E-05  0 -0.1136E-05
   (  2,  1, 46)  (  3,  1, 38)  (  5,  1, 33)  (  5,  1, 24)  (  4,  1,  6)
  0 -0.1234E-05  0 -0.1350E-05  0 -0.1192E-05  0 -0.8532E-06  1 -0.2532E-06
   (  1,  1,  8)  (  7,  1,  1)  (  3,  1,  3)  (  1,  1,  4)  ( 35,  1,  8)

 MAXIMUM RESIDUAL FOR EACH ITERATION (1 INDICATES THE FIRST INNER ITERATION):

    RESIDUAL       RESIDUAL       RESIDUAL       RESIDUAL       RESIDUAL    
   LAYER,ROW,COL  LAYER,ROW,COL  LAYER,ROW,COL  LAYER,ROW,COL  LAYER,ROW,COL
 ---------------------------------------------------------------------------
  1   6.575      0   4.178      0  -1.868      0  -1.158      0 -0.8819    
   ( 50,  1, 51)  ( 50,  1, 43)  ( 49,  1, 43)  ( 50,  1, 63)  ( 50,  1, 41)
  0 -0.4874      0 -0.3468      0  0.1647      0  0.1056      0  0.7920E-01
   ( 49,  1, 52)  ( 49,  1, 48)  ( 50,  1, 41)  ( 49,  1, 52)  ( 49,  1, 47)
  0 -0.4257E-01  0 -0.3758E-01  0  0.2607E-01  0 -0.2116E-01  0  0.2022E-01
   ( 49,  1, 60)  ( 49,  1, 51)  ( 39,  1, 99)  ( 45,  1, 99)  (  1,  1, 98)
  0  0.2043E-01  0  0.2134E-01  0  0.1917E-01  0 -0.1799E-01  1 -0.7991E-02
   ( 46,  1, 99)  ( 43,  1, 99)  ( 39,  1, 99)  ( 44,  1, 99)  (  1,  1, 99)


 FLOW MODEL IS TRANSIENT
 FLOW MODEL CONTAINS CONSTANT-HEAD CELLS


 MAXIMUM STEPSIZE DURING WHICH ANY PARTICLE CANNOT MOVE MORE THAN ONE CELL
 =  9.564    (WHEN MIN. R.F.=1)  AT K=   1, I=   1, J=  99

 MAXIMUM STEPSIZE WHICH MEETS STABILITY CRITERION OF THE ADVECTION TERM
 (FOR PURE FINITE-DIFFERENCE OPTION, MIXELM=0) 
 =  9.326    (WHEN MIN. R.F.=1)  AT K=   1, I=   1, J=  99


 TOTAL NUMBER OF POINT SOURCES/SINKS PRESENT IN THE FLOW MODEL =       100

 MAXIMUM STEPSIZE WHICH MEETS STABILITY CRITERION OF THE SINK & SOURCE TERM
 =  122.8    (WHEN MIN. R.F.=1)  AT K=   1, I=   1, J=   1

 MAXIMUM STEPSIZE WHICH MEETS STABILITY CRITERION OF THE DISPERSION TERM
 =  2.130    (WHEN MIN. R.F.=1)  AT K=   1, I=   1, J=  99
     5 CALLS TO GCG PACKAGE FOR TRANSPORT TIME STEP  11 IN FLOW TIME STEP   1 STRESS PERIOD   6
    15 TOTAL ITERATIONS
 
 SOLVING FOR HEAD 


     2 CALLS TO PCG ROUTINE FOR TIME STEP   1 IN STRESS PERIOD    6
    20 TOTAL ITERATIONS

 MAXIMUM HEAD CHANGE FOR EACH ITERATION (1 INDICATES THE FIRST INNER ITERATION):

    HEAD CHANGE    HEAD CHANGE    HEAD CHANGE    HEAD CHANGE    HEAD CHANGE 
   LAYER,ROW,COL  LAYER,ROW,COL  LAYER,ROW,COL  LAYER,ROW,COL  LAYER,ROW,COL
 ---------------------------------------------------------------------------
  1  0.8990E-03  0  0.2809E-03  0  0.1480E-03  0  0.8238E-04  0  0.5618E-04
   ( 50,  1, 49)  ( 48,  1, 57)  ( 46,  1, 63)  ( 43,  1, 67)  ( 39,  1, 70)
  0  0.3299E-04  0 -0.1955E-04  0 -0.1130E-04  0 -0.7598E-05  0 -0.5063E-05
   ( 50,  1, 68)  (  2,  1, 72)  (  1,  1, 77)  (  1,  1, 54)  (  2,  1, 41)
  0 -0.4315E-05  0 -0.3011E-05  0 -0.1847E-05  0 -0.1175E-05  0 -0.1036E-05
   (  2,  1, 46)  (  3,  1, 38)  (  5,  1, 33)  (  6,  1, 26)  (  4,  1,  6)
  0 -0.1108E-05  0 -0.1219E-05  0 -0.1099E-05  0 -0.8202E-06  1 -0.2381E-06
   (  1,  1,  8)  (  7,  1,  1)  (  3,  1,  3)  (  1,  1,  4)  ( 35,  1,  8)

 MAXIMUM RESIDUAL FOR EACH ITERATION (1 INDICATES THE FIRST INNER ITERATION):

    RESIDUAL       RESIDUAL       RESIDUAL       RESIDUAL       RESIDUAL    
   LAYER,ROW,COL  LAYER,ROW,COL  LAYER,ROW,COL  LAYER,ROW,COL  LAYER,ROW,COL
 ---------------------------------------------------------------------------
  1   6.554      0   4.183      0  -1.854      0  -1.156      0 -0.8798    
   ( 50,  1, 51)  ( 50,  1, 43)  ( 49,  1, 43)  ( 50,  1, 63)  ( 50,  1, 41)
  0 -0.4862      0 -0.3463      0  0.1643      0  0.1050      0  0.7883E-01
   ( 49,  1, 52)  ( 49,  1, 48)  ( 50,  1, 41)  ( 49,  1, 52)  ( 49,  1, 47)
  0 -0.4220E-01  0 -0.3713E-01  0  0.2530E-01  0 -0.2016E-01  0  0.1884E-01
   ( 49,  1, 60)  ( 49,  1, 51)  ( 40,  1, 99)  ( 45,  1, 99)  (  1,  1, 98)
  0  0.1844E-01  0  0.1922E-01  0  0.1732E-01  0 -0.1652E-01  1 -0.7401E-02
   ( 46,  1, 99)  ( 43,  1, 99)  ( 39,  1, 99)  ( 45,  1, 99)  (  1,  1, 99)


 FLOW MODEL IS TRANSIENT
 FLOW MODEL CONTAINS CONSTANT-HEAD CELLS


 MAXIMUM STEPSIZE DURING WHICH ANY PARTICLE CANNOT MOVE MORE THAN ONE CELL
 =  9.568    (WHEN MIN. R.F.=1)  AT K=   1, I=   1, J=  99

 MAXIMUM STEPSIZE WHICH MEETS STABILITY CRITERION OF THE ADVECTION TERM
 (FOR PURE FINITE-DIFFERENCE OPTION, MIXELM=0) 
 =  9.329    (WHEN MIN. R.F.=1)  AT K=   1, I=   1, J=  99


 TOTAL NUMBER OF POINT SOURCES/SINKS PRESENT IN THE FLOW MODEL =       100

 MAXIMUM STEPSIZE WHICH MEETS STABILITY CRITERION OF THE SINK & SOURCE TERM
 =  122.8    (WHEN MIN. R.F.=1)  AT K=   1, I=   1, J=   1

 MAXIMUM STEPSIZE WHICH MEETS STABILITY CRITERION OF THE DISPERSION TERM
 =  2.131    (WHEN MIN. R.F.=1)  AT K=   1, I=   1, J=  99
     5 CALLS TO GCG PACKAGE FOR TRANSPORT TIME STEP  12 IN FLOW TIME STEP   1 STRESS PERIOD   6
    15 TOTAL ITERATIONS
 
 SOLVING FOR HEAD 


     2 CALLS TO PCG ROUTINE FOR TIME STEP   1 IN STRESS PERIOD    6
    20 TOTAL ITERATIONS

 MAXIMUM HEAD CHANGE FOR EACH ITERATION (1 INDICATES THE FIRST INNER ITERATION):

    HEAD CHANGE    HEAD CHANGE    HEAD CHANGE    HEAD CHANGE    HEAD CHANGE 
   LAYER,ROW,COL  LAYER,ROW,COL  LAYER,ROW,COL  LAYER,ROW,COL  LAYER,ROW,COL
 ---------------------------------------------------------------------------
  1  0.8961E-03  0  0.2799E-03  0  0.1477E-03  0  0.8232E-04  0  0.5611E-04
   ( 50,  1, 49)  ( 48,  1, 57)  ( 46,  1, 62)  ( 43,  1, 67)  ( 39,  1, 70)
  0  0.3288E-04  0 -0.1934E-04  0 -0.1118E-04  0 -0.7580E-05  0 -0.5034E-05
   ( 50,  1, 68)  (  1,  1, 71)  (  1,  1, 76)  (  1,  1, 54)  (  2,  1, 41)
  0 -0.4294E-05  0 -0.3001E-05  0 -0.1848E-05  0 -0.1180E-05  0 -0.1041E-05
   (  2,  1, 46)  (  3,  1, 38)  (  5,  1, 33)  (  6,  1, 26)  (  4,  1,  6)
  0 -0.1117E-05  0 -0.1228E-05  0 -0.1107E-05  0 -0.8219E-06  1 -0.2385E-06
   (  1,  1,  8)  (  7,  1,  1)  (  3,  1,  3)  (  1,  1,  5)  ( 35,  1,  8)

 MAXIMUM RESIDUAL FOR EACH ITERATION (1 INDICATES THE FIRST INNER ITERATION):

    RESIDUAL       RESIDUAL       RESIDUAL       RESIDUAL       RESIDUAL    
   LAYER,ROW,COL  LAYER,ROW,COL  LAYER,ROW,COL  LAYER,ROW,COL  LAYER,ROW,COL
 ---------------------------------------------------------------------------
  1   6.527      0   4.185      0  -1.833      0  -1.150      0 -0.8766    
   ( 50,  1, 51)  ( 50,  1, 43)  ( 49,  1, 43)  ( 50,  1, 63)  ( 50,  1, 41)
  0 -0.4834      0 -0.3453      0  0.1633      0  0.1048      0  0.7884E-01
   ( 49,  1, 52)  ( 49,  1, 48)  ( 50,  1, 41)  ( 49,  1, 52)  ( 49,  1, 47)
  0 -0.4205E-01  0 -0.3717E-01  0  0.2512E-01  0 -0.1999E-01  0  0.1889E-01
   ( 49,  1, 60)  ( 49,  1, 51)  ( 40,  1, 99)  ( 45,  1, 99)  (  1,  1, 98)
  0  0.1839E-01  0  0.1924E-01  0  0.1738E-01  0 -0.1653E-01  1 -0.7476E-02
   ( 46,  1, 99)  ( 43,  1, 99)  ( 39,  1, 99)  ( 45,  1, 99)  (  1,  1, 99)


 FLOW MODEL IS TRANSIENT
 FLOW MODEL CONTAINS CONSTANT-HEAD CELLS


 MAXIMUM STEPSIZE DURING WHICH ANY PARTICLE CANNOT MOVE MORE THAN ONE CELL
 =  9.572    (WHEN MIN. R.F.=1)  AT K=   1, I=   1, J=  99

 MAXIMUM STEPSIZE WHICH MEETS STABILITY CRITERION OF THE ADVECTION TERM
 (FOR PURE FINITE-DIFFERENCE OPTION, MIXELM=0) 
 =  9.333    (WHEN MIN. R.F.=1)  AT K=   1, I=   1, J=  99


 TOTAL NUMBER OF POINT SOURCES/SINKS PRESENT IN THE FLOW MODEL =       100

 MAXIMUM STEPSIZE WHICH MEETS STABILITY CRITERION OF THE SINK & SOURCE TERM
 =  122.8    (WHEN MIN. R.F.=1)  AT K=   1, I=   1, J=   1

 MAXIMUM STEPSIZE WHICH MEETS STABILITY CRITERION OF THE DISPERSION TERM
 =  2.131    (WHEN MIN. R.F.=1)  AT K=   1, I=   1, J=  99
     5 CALLS TO GCG PACKAGE FOR TRANSPORT TIME STEP  13 IN FLOW TIME STEP   1 STRESS PERIOD   6
    15 TOTAL ITERATIONS
 
 SOLVING FOR HEAD 


     2 CALLS TO PCG ROUTINE FOR TIME STEP   1 IN STRESS PERIOD    6
    20 TOTAL ITERATIONS

 MAXIMUM HEAD CHANGE FOR EACH ITERATION (1 INDICATES THE FIRST INNER ITERATION):

    HEAD CHANGE    HEAD CHANGE    HEAD CHANGE    HEAD CHANGE    HEAD CHANGE 
   LAYER,ROW,COL  LAYER,ROW,COL  LAYER,ROW,COL  LAYER,ROW,COL  LAYER,ROW,COL
 ---------------------------------------------------------------------------
  1  0.8929E-03  0  0.2789E-03  0  0.1473E-03  0  0.8220E-04  0  0.5606E-04
   ( 50,  1, 49)  ( 48,  1, 57)  ( 46,  1, 62)  ( 43,  1, 67)  ( 39,  1, 70)
  0  0.3272E-04  0 -0.1944E-04  0 -0.1124E-04  0 -0.7575E-05  0 -0.5004E-05
   ( 50,  1, 67)  (  2,  1, 72)  (  1,  1, 76)  (  1,  1, 54)  (  2,  1, 41)
  0 -0.4298E-05  0 -0.3001E-05  0 -0.1852E-05  0 -0.1184E-05  0 -0.1041E-05
   (  2,  1, 46)  (  3,  1, 38)  (  6,  1, 34)  (  6,  1, 26)  (  4,  1,  6)
  0 -0.1122E-05  0 -0.1234E-05  0 -0.1112E-05  0 -0.8235E-06  1 -0.2393E-06
   (  1,  1,  8)  (  7,  1,  1)  (  3,  1,  3)  (  1,  1,  5)  ( 35,  1,  8)

 MAXIMUM RESIDUAL FOR EACH ITERATION (1 INDICATES THE FIRST INNER ITERATION):

    RESIDUAL       RESIDUAL       RESIDUAL       RESIDUAL       RESIDUAL    
   LAYER,ROW,COL  LAYER,ROW,COL  LAYER,ROW,COL  LAYER,ROW,COL  LAYER,ROW,COL
 ---------------------------------------------------------------------------
  1   6.500      0   4.182      0  -1.807      0  -1.144      0 -0.8744    
   ( 50,  1, 51)  ( 50,  1, 43)  ( 49,  1, 42)  ( 50,  1, 63)  ( 50,  1, 41)
  0 -0.4831      0 -0.3441      0  0.1620      0  0.1045      0  0.7867E-01
   ( 49,  1, 51)  ( 49,  1, 48)  ( 50,  1, 41)  ( 49,  1, 52)  ( 49,  1, 47)
  0 -0.4194E-01  0 -0.3725E-01  0  0.2500E-01  0 -0.1987E-01  0  0.1884E-01
   ( 49,  1, 60)  ( 49,  1, 51)  ( 40,  1, 99)  ( 45,  1, 99)  (  1,  1, 98)
  0  0.1825E-01  0  0.1917E-01  0  0.1734E-01  0 -0.1646E-01  1 -0.7512E-02
   ( 46,  1, 99)  ( 43,  1, 99)  ( 39,  1, 99)  ( 45,  1, 99)  (  1,  1, 99)


 FLOW MODEL IS TRANSIENT
 FLOW MODEL CONTAINS CONSTANT-HEAD CELLS


 MAXIMUM STEPSIZE DURING WHICH ANY PARTICLE CANNOT MOVE MORE THAN ONE CELL
 =  9.575    (WHEN MIN. R.F.=1)  AT K=   1, I=   1, J=  99

 MAXIMUM STEPSIZE WHICH MEETS STABILITY CRITERION OF THE ADVECTION TERM
 (FOR PURE FINITE-DIFFERENCE OPTION, MIXELM=0) 
 =  9.336    (WHEN MIN. R.F.=1)  AT K=   1, I=   1, J=  99


 TOTAL NUMBER OF POINT SOURCES/SINKS PRESENT IN THE FLOW MODEL =       100

 MAXIMUM STEPSIZE WHICH MEETS STABILITY CRITERION OF THE SINK & SOURCE TERM
 =  122.8    (WHEN MIN. R.F.=1)  AT K=   1, I=   1, J=   1

 MAXIMUM STEPSIZE WHICH MEETS STABILITY CRITERION OF THE DISPERSION TERM
 =  2.132    (WHEN MIN. R.F.=1)  AT K=   1, I=   1, J=  99
     5 CALLS TO GCG PACKAGE FOR TRANSPORT TIME STEP  14 IN FLOW TIME STEP   1 STRESS PERIOD   6
    15 TOTAL ITERATIONS
 
 SOLVING FOR HEAD 


     2 CALLS TO PCG ROUTINE FOR TIME STEP   1 IN STRESS PERIOD    6
    20 TOTAL ITERATIONS

 MAXIMUM HEAD CHANGE FOR EACH ITERATION (1 INDICATES THE FIRST INNER ITERATION):

    HEAD CHANGE    HEAD CHANGE    HEAD CHANGE    HEAD CHANGE    HEAD CHANGE 
   LAYER,ROW,COL  LAYER,ROW,COL  LAYER,ROW,COL  LAYER,ROW,COL  LAYER,ROW,COL
 ---------------------------------------------------------------------------
  1  0.8895E-03  0  0.2776E-03  0  0.1468E-03  0  0.8195E-04  0  0.5592E-04
   ( 50,  1, 49)  ( 48,  1, 57)  ( 46,  1, 62)  ( 43,  1, 67)  ( 39,  1, 70)
  0  0.3264E-04  0 -0.1934E-04  0 -0.1123E-04  0 -0.7589E-05  0 -0.5036E-05
   ( 50,  1, 67)  (  1,  1, 71)  (  1,  1, 76)  (  1,  1, 54)  (  2,  1, 41)
  0 -0.4349E-05  0 -0.3081E-05  0 -0.1940E-05  0 -0.1274E-05  0 -0.1163E-05
   (  2,  1, 46)  (  3,  1, 37)  (  5,  1, 32)  (  5,  1, 24)  (  4,  1,  6)
  0 -0.1285E-05  0 -0.1413E-05  0 -0.1236E-05  0 -0.8747E-06  1 -0.2569E-06
   (  1,  1,  8)  (  7,  1,  1)  (  3,  1,  3)  ( 49,  1, 13)  ( 35,  1,  8)

 MAXIMUM RESIDUAL FOR EACH ITERATION (1 INDICATES THE FIRST INNER ITERATION):

    RESIDUAL       RESIDUAL       RESIDUAL       RESIDUAL       RESIDUAL    
   LAYER,ROW,COL  LAYER,ROW,COL  LAYER,ROW,COL  LAYER,ROW,COL  LAYER,ROW,COL
 ---------------------------------------------------------------------------
  1   6.484      0   4.173      0  -1.828      0  -1.141      0 -0.8741    
   ( 50,  1, 50)  ( 50,  1, 43)  ( 49,  1, 42)  ( 50,  1, 62)  ( 50,  1, 40)
  0 -0.4842      0 -0.3426      0  0.1623      0  0.1044      0  0.7901E-01
   ( 49,  1, 51)  ( 49,  1, 48)  ( 50,  1, 40)  ( 49,  1, 52)  ( 49,  1, 47)
  0 -0.4236E-01  0 -0.3795E-01  0  0.2548E-01  0 -0.2074E-01  0  0.2056E-01
   ( 49,  1, 59)  ( 49,  1, 51)  ( 40,  1, 99)  ( 45,  1, 99)  (  1,  1, 98)
  0  0.2045E-01  0  0.2161E-01  0  0.1945E-01  0 -0.1807E-01  1 -0.8341E-02
   ( 46,  1, 99)  ( 43,  1, 99)  ( 39,  1, 99)  ( 45,  1, 99)  (  1,  1, 99)


 FLOW MODEL IS TRANSIENT
 FLOW MODEL CONTAINS CONSTANT-HEAD CELLS


 MAXIMUM STEPSIZE DURING WHICH ANY PARTICLE CANNOT MOVE MORE THAN ONE CELL
 =  9.579    (WHEN MIN. R.F.=1)  AT K=   1, I=   1, J=  99

 MAXIMUM STEPSIZE WHICH MEETS STABILITY CRITERION OF THE ADVECTION TERM
 (FOR PURE FINITE-DIFFERENCE OPTION, MIXELM=0) 
 =  9.340    (WHEN MIN. R.F.=1)  AT K=   1, I=   1, J=  99


 TOTAL NUMBER OF POINT SOURCES/SINKS PRESENT IN THE FLOW MODEL =       100

 MAXIMUM STEPSIZE WHICH MEETS STABILITY CRITERION OF THE SINK & SOURCE TERM
 =  122.8    (WHEN MIN. R.F.=1)  AT K=   1, I=   1, J=   1

 MAXIMUM STEPSIZE WHICH MEETS STABILITY CRITERION OF THE DISPERSION TERM
 =  2.133    (WHEN MIN. R.F.=1)  AT K=   1, I=   1, J=  99
     5 CALLS TO GCG PACKAGE FOR TRANSPORT TIME STEP  15 IN FLOW TIME STEP   1 STRESS PERIOD   6
    15 TOTAL ITERATIONS
 
 SOLVING FOR HEAD 


     2 CALLS TO PCG ROUTINE FOR TIME STEP   1 IN STRESS PERIOD    6
    16 TOTAL ITERATIONS

 MAXIMUM HEAD CHANGE FOR EACH ITERATION (1 INDICATES THE FIRST INNER ITERATION):

    HEAD CHANGE    HEAD CHANGE    HEAD CHANGE    HEAD CHANGE    HEAD CHANGE 
   LAYER,ROW,COL  LAYER,ROW,COL  LAYER,ROW,COL  LAYER,ROW,COL  LAYER,ROW,COL
 ---------------------------------------------------------------------------
  1  0.8860E-03  0  0.2764E-03  0  0.1463E-03  0  0.8170E-04  0  0.5576E-04
   ( 50,  1, 48)  ( 48,  1, 56)  ( 46,  1, 62)  ( 43,  1, 67)  ( 39,  1, 70)
  0  0.3262E-04  0 -0.1927E-04  0 -0.1113E-04  0 -0.7467E-05  0 -0.4892E-05
   ( 50,  1, 67)  (  1,  1, 71)  (  1,  1, 76)  (  1,  1, 54)  (  2,  1, 41)
  0 -0.4241E-05  0 -0.2941E-05  0 -0.1791E-05  0 -0.1118E-05  0 -0.9534E-06
   (  2,  1, 46)  (  3,  1, 37)  (  6,  1, 34)  (  5,  1, 24)  (  4,  1,  6)
  1 -0.3394E-06
   (  3,  1, 86)

 MAXIMUM RESIDUAL FOR EACH ITERATION (1 INDICATES THE FIRST INNER ITERATION):

    RESIDUAL       RESIDUAL       RESIDUAL       RESIDUAL       RESIDUAL    
   LAYER,ROW,COL  LAYER,ROW,COL  LAYER,ROW,COL  LAYER,ROW,COL  LAYER,ROW,COL
 ---------------------------------------------------------------------------
  1   6.475      0   4.158      0  -1.844      0  -1.141      0 -0.8741    
   ( 50,  1, 50)  ( 50,  1, 43)  ( 49,  1, 42)  ( 50,  1, 62)  ( 50,  1, 40)
  0 -0.4832      0 -0.3416      0  0.1627      0  0.1035      0  0.7807E-01
   ( 49,  1, 51)  ( 49,  1, 47)  ( 50,  1, 40)  ( 49,  1, 52)  ( 49,  1, 47)
  0 -0.4145E-01  0 -0.3680E-01  0 -0.2425E-01  0 -0.1882E-01  0  0.1753E-01
   ( 49,  1, 59)  ( 49,  1, 51)  ( 49,  1, 42)  ( 45,  1, 99)  (  1,  1, 98)
  1  0.8586E-02
   (  1,  1, 99)


 FLOW MODEL IS TRANSIENT
 FLOW MODEL CONTAINS CONSTANT-HEAD CELLS


 MAXIMUM STEPSIZE DURING WHICH ANY PARTICLE CANNOT MOVE MORE THAN ONE CELL
 =  9.582    (WHEN MIN. R.F.=1)  AT K=   1, I=   1, J=  99

 MAXIMUM STEPSIZE WHICH MEETS STABILITY CRITERION OF THE ADVECTION TERM
 (FOR PURE FINITE-DIFFERENCE OPTION, MIXELM=0) 
 =  9.343    (WHEN MIN. R.F.=1)  AT K=   1, I=   1, J=  99


 TOTAL NUMBER OF POINT SOURCES/SINKS PRESENT IN THE FLOW MODEL =       100

 MAXIMUM STEPSIZE WHICH MEETS STABILITY CRITERION OF THE SINK & SOURCE TERM
 =  122.8    (WHEN MIN. R.F.=1)  AT K=   1, I=   1, J=   1

 MAXIMUM STEPSIZE WHICH MEETS STABILITY CRITERION OF THE DISPERSION TERM
 =  2.134    (WHEN MIN. R.F.=1)  AT K=   1, I=   1, J=  99
     5 CALLS TO GCG PACKAGE FOR TRANSPORT TIME STEP  16 IN FLOW TIME STEP   1 STRESS PERIOD   6
    15 TOTAL ITERATIONS
 
 SOLVING FOR HEAD 


     2 CALLS TO PCG ROUTINE FOR TIME STEP   1 IN STRESS PERIOD    6
    20 TOTAL ITERATIONS

 MAXIMUM HEAD CHANGE FOR EACH ITERATION (1 INDICATES THE FIRST INNER ITERATION):

    HEAD CHANGE    HEAD CHANGE    HEAD CHANGE    HEAD CHANGE    HEAD CHANGE 
   LAYER,ROW,COL  LAYER,ROW,COL  LAYER,ROW,COL  LAYER,ROW,COL  LAYER,ROW,COL
 ---------------------------------------------------------------------------
  1  0.8840E-03  0  0.2756E-03  0  0.1461E-03  0  0.8161E-04  0  0.5592E-04
   ( 50,  1, 48)  ( 48,  1, 56)  ( 46,  1, 62)  ( 43,  1, 67)  ( 39,  1, 69)
  0  0.3250E-04  0 -0.1910E-04  0 -0.1102E-04  0 -0.7354E-05  0 -0.5027E-05
   ( 50,  1, 67)  (  1,  1, 71)  (  1,  1, 76)  (  1,  1, 54)  (  2,  1, 40)
  0 -0.4387E-05  0 -0.3096E-05  0 -0.1921E-05  0 -0.1234E-05  0 -0.1127E-05
   (  2,  1, 46)  (  3,  1, 37)  (  5,  1, 32)  (  5,  1, 24)  (  4,  1,  6)
  0 -0.1235E-05  0 -0.1372E-05  0 -0.1210E-05  0 -0.8582E-06  1 -0.2486E-06
   (  1,  1,  8)  (  7,  1,  1)  (  3,  1,  3)  (  1,  1,  5)  ( 35,  1,  8)

 MAXIMUM RESIDUAL FOR EACH ITERATION (1 INDICATES THE FIRST INNER ITERATION):

    RESIDUAL       RESIDUAL       RESIDUAL       RESIDUAL       RESIDUAL    
   LAYER,ROW,COL  LAYER,ROW,COL  LAYER,ROW,COL  LAYER,ROW,COL  LAYER,ROW,COL
 ---------------------------------------------------------------------------
  1   6.461      0   4.137      0  -1.853      0  -1.139      0 -0.8753    
   ( 50,  1, 50)  ( 50,  1, 43)  ( 49,  1, 42)  ( 50,  1, 62)  ( 50,  1, 40)
  0 -0.4834      0 -0.3421      0  0.1652      0  0.1041      0  0.7927E-01
   ( 49,  1, 51)  ( 49,  1, 47)  ( 50,  1, 40)  ( 49,  1, 52)  ( 49,  1, 47)
  0 -0.4213E-01  0 -0.3789E-01  0  0.2495E-01  0  0.2044E-01  0  0.1991E-01
   ( 49,  1, 59)  ( 49,  1, 51)  ( 40,  1, 99)  ( 40,  1,  2)  (  1,  1, 98)
  0 -0.1943E-01  0  0.2047E-01  0  0.1852E-01  0 -0.1731E-01  1 -0.8127E-02
   ( 37,  1, 99)  ( 43,  1, 99)  ( 39,  1, 99)  ( 45,  1, 99)  (  1,  1, 99)


 FLOW MODEL IS TRANSIENT
 FLOW MODEL CONTAINS CONSTANT-HEAD CELLS


 MAXIMUM STEPSIZE DURING WHICH ANY PARTICLE CANNOT MOVE MORE THAN ONE CELL
 =  9.586    (WHEN MIN. R.F.=1)  AT K=   1, I=   1, J=  99

 MAXIMUM STEPSIZE WHICH MEETS STABILITY CRITERION OF THE ADVECTION TERM
 (FOR PURE FINITE-DIFFERENCE OPTION, MIXELM=0) 
 =  9.346    (WHEN MIN. R.F.=1)  AT K=   1, I=   1, J=  99


 TOTAL NUMBER OF POINT SOURCES/SINKS PRESENT IN THE FLOW MODEL =       100

 MAXIMUM STEPSIZE WHICH MEETS STABILITY CRITERION OF THE SINK & SOURCE TERM
 =  122.8    (WHEN MIN. R.F.=1)  AT K=   1, I=   1, J=   1

 MAXIMUM STEPSIZE WHICH MEETS STABILITY CRITERION OF THE DISPERSION TERM
 =  2.135    (WHEN MIN. R.F.=1)  AT K=   1, I=   1, J=  99
     5 CALLS TO GCG PACKAGE FOR TRANSPORT TIME STEP  17 IN FLOW TIME STEP   1 STRESS PERIOD   6
    15 TOTAL ITERATIONS
 
 SOLVING FOR HEAD 


     2 CALLS TO PCG ROUTINE FOR TIME STEP   1 IN STRESS PERIOD    6
    20 TOTAL ITERATIONS

 MAXIMUM HEAD CHANGE FOR EACH ITERATION (1 INDICATES THE FIRST INNER ITERATION):

    HEAD CHANGE    HEAD CHANGE    HEAD CHANGE    HEAD CHANGE    HEAD CHANGE 
   LAYER,ROW,COL  LAYER,ROW,COL  LAYER,ROW,COL  LAYER,ROW,COL  LAYER,ROW,COL
 ---------------------------------------------------------------------------
  1  0.8818E-03  0  0.2745E-03  0  0.1455E-03  0  0.8127E-04  0  0.5565E-04
   ( 50,  1, 48)  ( 48,  1, 56)  ( 46,  1, 62)  ( 43,  1, 67)  ( 39,  1, 69)
  0  0.3245E-04  0 -0.1929E-04  0 -0.1121E-04  0 -0.7523E-05  0 -0.4941E-05
   ( 50,  1, 67)  (  1,  1, 71)  (  1,  1, 76)  (  1,  1, 54)  (  2,  1, 40)
  0 -0.4323E-05  0 -0.3073E-05  0 -0.1927E-05  0 -0.1258E-05  0 -0.1138E-05
   (  2,  1, 45)  (  3,  1, 37)  (  6,  1, 34)  (  5,  1, 24)  (  4,  1,  5)
  0 -0.1267E-05  0 -0.1393E-05  0 -0.1223E-05  0 -0.8631E-06  1 -0.2566E-06
   (  1,  1,  8)  (  7,  1,  1)  (  3,  1,  3)  ( 49,  1, 13)  ( 43,  1,  2)

 MAXIMUM RESIDUAL FOR EACH ITERATION (1 INDICATES THE FIRST INNER ITERATION):

    RESIDUAL       RESIDUAL       RESIDUAL       RESIDUAL       RESIDUAL    
   LAYER,ROW,COL  LAYER,ROW,COL  LAYER,ROW,COL  LAYER,ROW,COL  LAYER,ROW,COL
 ---------------------------------------------------------------------------
  1   6.444      0   4.111      0  -1.855      0  -1.138      0 -0.8740    
   ( 50,  1, 50)  ( 50,  1, 43)  ( 49,  1, 42)  ( 50,  1, 62)  ( 50,  1, 40)
  0 -0.4819      0 -0.3414      0  0.1639      0  0.1038      0  0.7816E-01
   ( 49,  1, 51)  ( 49,  1, 47)  ( 50,  1, 40)  ( 49,  1, 51)  ( 49,  1, 47)
  0 -0.4194E-01  0 -0.3773E-01  0 -0.2498E-01  0  0.2068E-01  0  0.2017E-01
   ( 49,  1, 59)  ( 49,  1, 51)  ( 49,  1, 42)  ( 40,  1,  2)  ( 43,  1,  2)
  0 -0.1978E-01  0  0.2087E-01  0  0.1890E-01  0 -0.1759E-01  1 -0.8298E-02
   ( 37,  1, 99)  ( 43,  1, 99)  ( 39,  1, 99)  ( 45,  1, 99)  (  1,  1, 99)


 FLOW MODEL IS TRANSIENT
 FLOW MODEL CONTAINS CONSTANT-HEAD CELLS


 MAXIMUM STEPSIZE DURING WHICH ANY PARTICLE CANNOT MOVE MORE THAN ONE CELL
 =  9.589    (WHEN MIN. R.F.=1)  AT K=   1, I=   1, J=  99

 MAXIMUM STEPSIZE WHICH MEETS STABILITY CRITERION OF THE ADVECTION TERM
 (FOR PURE FINITE-DIFFERENCE OPTION, MIXELM=0) 
 =  9.350    (WHEN MIN. R.F.=1)  AT K=   1, I=   1, J=  99


 TOTAL NUMBER OF POINT SOURCES/SINKS PRESENT IN THE FLOW MODEL =       100

 MAXIMUM STEPSIZE WHICH MEETS STABILITY CRITERION OF THE SINK & SOURCE TERM
 =  122.8    (WHEN MIN. R.F.=1)  AT K=   1, I=   1, J=   1

 MAXIMUM STEPSIZE WHICH MEETS STABILITY CRITERION OF THE DISPERSION TERM
 =  2.135    (WHEN MIN. R.F.=1)  AT K=   1, I=   1, J=  99
     5 CALLS TO GCG PACKAGE FOR TRANSPORT TIME STEP  18 IN FLOW TIME STEP   1 STRESS PERIOD   6
    15 TOTAL ITERATIONS
 
 SOLVING FOR HEAD 


     2 CALLS TO PCG ROUTINE FOR TIME STEP   1 IN STRESS PERIOD    6
    16 TOTAL ITERATIONS

 MAXIMUM HEAD CHANGE FOR EACH ITERATION (1 INDICATES THE FIRST INNER ITERATION):

    HEAD CHANGE    HEAD CHANGE    HEAD CHANGE    HEAD CHANGE    HEAD CHANGE 
   LAYER,ROW,COL  LAYER,ROW,COL  LAYER,ROW,COL  LAYER,ROW,COL  LAYER,ROW,COL
 ---------------------------------------------------------------------------
  1  0.8794E-03  0  0.2734E-03  0  0.1449E-03  0  0.8099E-04  0  0.5547E-04
   ( 50,  1, 48)  ( 48,  1, 56)  ( 46,  1, 62)  ( 43,  1, 67)  ( 39,  1, 69)
  0  0.3239E-04  0 -0.1916E-04  0 -0.1110E-04  0 -0.7363E-05  0 -0.4860E-05
   ( 50,  1, 67)  (  1,  1, 71)  (  1,  1, 76)  (  1,  1, 54)  (  2,  1, 40)
  0 -0.4231E-05  0 -0.2950E-05  0 -0.1808E-05  0 -0.1138E-05  0 -0.9767E-06
   (  2,  1, 45)  (  3,  1, 37)  (  5,  1, 32)  (  6,  1, 25)  (  4,  1,  5)
  1 -0.3419E-06
   (  3,  1, 86)

 MAXIMUM RESIDUAL FOR EACH ITERATION (1 INDICATES THE FIRST INNER ITERATION):

    RESIDUAL       RESIDUAL       RESIDUAL       RESIDUAL       RESIDUAL    
   LAYER,ROW,COL  LAYER,ROW,COL  LAYER,ROW,COL  LAYER,ROW,COL  LAYER,ROW,COL
 ---------------------------------------------------------------------------
  1   6.423      0   4.078      0  -1.853      0  -1.138      0 -0.8726    
   ( 50,  1, 50)  ( 50,  1, 43)  ( 49,  1, 42)  ( 50,  1, 62)  ( 50,  1, 40)
  0 -0.4807      0 -0.3413      0  0.1642      0  0.1031      0  0.7727E-01
   ( 49,  1, 51)  ( 49,  1, 47)  ( 50,  1, 40)  ( 49,  1, 51)  ( 49,  1, 47)
  0 -0.4128E-01  0 -0.3682E-01  0 -0.2426E-01  0  0.1911E-01  0  0.1765E-01
   ( 49,  1, 59)  ( 49,  1, 50)  ( 42,  1,  2)  ( 40,  1,  2)  (  1,  1, 98)
  1  0.8717E-02
   (  1,  1, 99)


 FLOW MODEL IS TRANSIENT
 FLOW MODEL CONTAINS CONSTANT-HEAD CELLS


 MAXIMUM STEPSIZE DURING WHICH ANY PARTICLE CANNOT MOVE MORE THAN ONE CELL
 =  9.593    (WHEN MIN. R.F.=1)  AT K=   1, I=   1, J=  99

 MAXIMUM STEPSIZE WHICH MEETS STABILITY CRITERION OF THE ADVECTION TERM
 (FOR PURE FINITE-DIFFERENCE OPTION, MIXELM=0) 
 =  9.353    (WHEN MIN. R.F.=1)  AT K=   1, I=   1, J=  99


 TOTAL NUMBER OF POINT SOURCES/SINKS PRESENT IN THE FLOW MODEL =       100

 MAXIMUM STEPSIZE WHICH MEETS STABILITY CRITERION OF THE SINK & SOURCE TERM
 =  122.8    (WHEN MIN. R.F.=1)  AT K=   1, I=   1, J=   1

 MAXIMUM STEPSIZE WHICH MEETS STABILITY CRITERION OF THE DISPERSION TERM
 =  2.136    (WHEN MIN. R.F.=1)  AT K=   1, I=   1, J=  99
     5 CALLS TO GCG PACKAGE FOR TRANSPORT TIME STEP  19 IN FLOW TIME STEP   1 STRESS PERIOD   6
    15 TOTAL ITERATIONS
 
 SOLVING FOR HEAD 


     2 CALLS TO PCG ROUTINE FOR TIME STEP   1 IN STRESS PERIOD    6
    20 TOTAL ITERATIONS

 MAXIMUM HEAD CHANGE FOR EACH ITERATION (1 INDICATES THE FIRST INNER ITERATION):

    HEAD CHANGE    HEAD CHANGE    HEAD CHANGE    HEAD CHANGE    HEAD CHANGE 
   LAYER,ROW,COL  LAYER,ROW,COL  LAYER,ROW,COL  LAYER,ROW,COL  LAYER,ROW,COL
 ---------------------------------------------------------------------------
  1  0.8766E-03  0  0.2724E-03  0  0.1446E-03  0  0.8087E-04  0  0.5556E-04
   ( 50,  1, 48)  ( 48,  1, 56)  ( 46,  1, 62)  ( 43,  1, 66)  ( 39,  1, 69)
  0  0.3223E-04  0 -0.1901E-04  0 -0.1094E-04  0 -0.7266E-05  0 -0.4943E-05
   ( 50,  1, 67)  (  1,  1, 71)  (  1,  1, 76)  (  1,  1, 54)  (  2,  1, 40)
  0 -0.4374E-05  0 -0.3064E-05  0 -0.1894E-05  0 -0.1208E-05  0 -0.1087E-05
   (  2,  1, 45)  (  3,  1, 37)  (  5,  1, 32)  (  6,  1, 25)  (  3,  1,  5)
  0 -0.1195E-05  0 -0.1324E-05  0 -0.1174E-05  0 -0.8464E-06  1 -0.2443E-06
   (  1,  1,  8)  (  8,  1,  1)  (  3,  1,  3)  (  1,  1,  5)  ( 43,  1,  2)

 MAXIMUM RESIDUAL FOR EACH ITERATION (1 INDICATES THE FIRST INNER ITERATION):

    RESIDUAL       RESIDUAL       RESIDUAL       RESIDUAL       RESIDUAL    
   LAYER,ROW,COL  LAYER,ROW,COL  LAYER,ROW,COL  LAYER,ROW,COL  LAYER,ROW,COL
 ---------------------------------------------------------------------------
  1   6.403      0   4.071      0  -1.843      0  -1.133      0 -0.8713    
   ( 50,  1, 50)  ( 50,  1, 42)  ( 49,  1, 42)  ( 50,  1, 62)  ( 50,  1, 40)
  0 -0.4801      0 -0.3413      0  0.1663      0  0.1034      0  0.7825E-01
   ( 49,  1, 51)  ( 49,  1, 47)  ( 50,  1, 40)  ( 49,  1, 51)  ( 49,  1, 47)
  0 -0.4166E-01  0 -0.3774E-01  0 -0.2485E-01  0  0.2058E-01  0  0.1935E-01
   ( 49,  1, 59)  ( 49,  1, 50)  ( 42,  1,  2)  ( 40,  1,  2)  ( 43,  1,  2)
  0 -0.1853E-01  0  0.1938E-01  0  0.1763E-01  0 -0.1659E-01  1 -0.7957E-02
   ( 37,  1, 99)  ( 43,  1, 99)  ( 39,  1, 99)  ( 45,  1, 99)  (  1,  1, 99)


 FLOW MODEL IS TRANSIENT
 FLOW MODEL CONTAINS CONSTANT-HEAD CELLS


 MAXIMUM STEPSIZE DURING WHICH ANY PARTICLE CANNOT MOVE MORE THAN ONE CELL
 =  9.596    (WHEN MIN. R.F.=1)  AT K=   1, I=   1, J=  99

 MAXIMUM STEPSIZE WHICH MEETS STABILITY CRITERION OF THE ADVECTION TERM
 (FOR PURE FINITE-DIFFERENCE OPTION, MIXELM=0) 
 =  9.356    (WHEN MIN. R.F.=1)  AT K=   1, I=   1, J=  99


 TOTAL NUMBER OF POINT SOURCES/SINKS PRESENT IN THE FLOW MODEL =       100

 MAXIMUM STEPSIZE WHICH MEETS STABILITY CRITERION OF THE SINK & SOURCE TERM
 =  122.8    (WHEN MIN. R.F.=1)  AT K=   1, I=   1, J=   1

 MAXIMUM STEPSIZE WHICH MEETS STABILITY CRITERION OF THE DISPERSION TERM
 =  2.137    (WHEN MIN. R.F.=1)  AT K=   1, I=   1, J=  99
     5 CALLS TO GCG PACKAGE FOR TRANSPORT TIME STEP  20 IN FLOW TIME STEP   1 STRESS PERIOD   6
    15 TOTAL ITERATIONS
 
 SOLVING FOR HEAD 


     2 CALLS TO PCG ROUTINE FOR TIME STEP   1 IN STRESS PERIOD    6
    16 TOTAL ITERATIONS

 MAXIMUM HEAD CHANGE FOR EACH ITERATION (1 INDICATES THE FIRST INNER ITERATION):

    HEAD CHANGE    HEAD CHANGE    HEAD CHANGE    HEAD CHANGE    HEAD CHANGE 
   LAYER,ROW,COL  LAYER,ROW,COL  LAYER,ROW,COL  LAYER,ROW,COL  LAYER,ROW,COL
 ---------------------------------------------------------------------------
  1  0.8739E-03  0  0.2712E-03  0  0.1439E-03  0  0.8053E-04  0  0.5526E-04
   ( 50,  1, 48)  ( 48,  1, 56)  ( 46,  1, 61)  ( 43,  1, 66)  ( 39,  1, 69)
  0  0.3218E-04  0 -0.1912E-04  0 -0.1112E-04  0 -0.7368E-05  0 -0.4831E-05
   ( 50,  1, 67)  (  1,  1, 71)  (  1,  1, 76)  (  1,  1, 53)  (  1,  1, 58)
  0 -0.4239E-05  0 -0.2955E-05  0 -0.1820E-05  0 -0.1152E-05  0 -0.9941E-06
   (  2,  1, 45)  (  3,  1, 37)  (  5,  1, 32)  (  6,  1, 25)  (  4,  1,  5)
  1 -0.3434E-06
   (  3,  1, 86)

 MAXIMUM RESIDUAL FOR EACH ITERATION (1 INDICATES THE FIRST INNER ITERATION):

    RESIDUAL       RESIDUAL       RESIDUAL       RESIDUAL       RESIDUAL    
   LAYER,ROW,COL  LAYER,ROW,COL  LAYER,ROW,COL  LAYER,ROW,COL  LAYER,ROW,COL
 ---------------------------------------------------------------------------
  1   6.376      0   4.074      0  -1.827      0  -1.131      0 -0.8687    
   ( 50,  1, 50)  ( 50,  1, 42)  ( 49,  1, 42)  ( 50,  1, 62)  ( 50,  1, 40)
  0 -0.4781      0 -0.3400      0  0.1638      0  0.1027      0  0.7702E-01
   ( 49,  1, 51)  ( 49,  1, 47)  ( 50,  1, 40)  ( 49,  1, 51)  ( 49,  1, 46)
  0 -0.4111E-01  0 -0.3708E-01  0 -0.2444E-01  0  0.1965E-01  0  0.1797E-01
   ( 49,  1, 59)  ( 49,  1, 50)  ( 42,  1,  2)  ( 40,  1,  2)  ( 43,  1,  2)
  1  0.8807E-02
   (  1,  1, 99)


 FLOW MODEL IS TRANSIENT
 FLOW MODEL CONTAINS CONSTANT-HEAD CELLS


 MAXIMUM STEPSIZE DURING WHICH ANY PARTICLE CANNOT MOVE MORE THAN ONE CELL
 =  9.600    (WHEN MIN. R.F.=1)  AT K=   1, I=   1, J=  99

 MAXIMUM STEPSIZE WHICH MEETS STABILITY CRITERION OF THE ADVECTION TERM
 (FOR PURE FINITE-DIFFERENCE OPTION, MIXELM=0) 
 =  9.360    (WHEN MIN. R.F.=1)  AT K=   1, I=   1, J=  99


 TOTAL NUMBER OF POINT SOURCES/SINKS PRESENT IN THE FLOW MODEL =       100

 MAXIMUM STEPSIZE WHICH MEETS STABILITY CRITERION OF THE SINK & SOURCE TERM
 =  122.8    (WHEN MIN. R.F.=1)  AT K=   1, I=   1, J=   1

 MAXIMUM STEPSIZE WHICH MEETS STABILITY CRITERION OF THE DISPERSION TERM
 =  2.138    (WHEN MIN. R.F.=1)  AT K=   1, I=   1, J=  99
     5 CALLS TO GCG PACKAGE FOR TRANSPORT TIME STEP  21 IN FLOW TIME STEP   1 STRESS PERIOD   6
    15 TOTAL ITERATIONS
 
 SOLVING FOR HEAD 


     2 CALLS TO PCG ROUTINE FOR TIME STEP   1 IN STRESS PERIOD    6
    20 TOTAL ITERATIONS

 MAXIMUM HEAD CHANGE FOR EACH ITERATION (1 INDICATES THE FIRST INNER ITERATION):

    HEAD CHANGE    HEAD CHANGE    HEAD CHANGE    HEAD CHANGE    HEAD CHANGE 
   LAYER,ROW,COL  LAYER,ROW,COL  LAYER,ROW,COL  LAYER,ROW,COL  LAYER,ROW,COL
 ---------------------------------------------------------------------------
  1  0.8708E-03  0  0.2701E-03  0  0.1437E-03  0  0.8046E-04  0  0.5526E-04
   ( 50,  1, 48)  ( 48,  1, 56)  ( 46,  1, 61)  ( 43,  1, 66)  ( 39,  1, 69)
  0  0.3202E-04  0 -0.1893E-04  0 -0.1089E-04  0 -0.7203E-05  0 -0.4947E-05
   ( 50,  1, 67)  (  1,  1, 71)  (  1,  1, 76)  (  1,  1, 54)  (  2,  1, 40)
  0 -0.4423E-05  0 -0.3115E-05  0 -0.1959E-05  0 -0.1279E-05  0 -0.1183E-05
   (  2,  1, 45)  (  3,  1, 37)  (  5,  1, 32)  (  6,  1, 25)  (  4,  1,  5)
  0 -0.1324E-05  0 -0.1462E-05  0 -0.1261E-05  0 -0.8981E-06  1 -0.2584E-06
   (  1,  1,  8)  (  8,  1,  1)  (  3,  1,  3)  ( 49,  1, 13)  ( 43,  1,  2)

 MAXIMUM RESIDUAL FOR EACH ITERATION (1 INDICATES THE FIRST INNER ITERATION):

    RESIDUAL       RESIDUAL       RESIDUAL       RESIDUAL       RESIDUAL    
   LAYER,ROW,COL  LAYER,ROW,COL  LAYER,ROW,COL  LAYER,ROW,COL  LAYER,ROW,COL
 ---------------------------------------------------------------------------
  1   6.354      0   4.075      0  -1.807      0  -1.128      0 -0.8670    
   ( 50,  1, 50)  ( 50,  1, 42)  ( 49,  1, 42)  ( 50,  1, 62)  ( 50,  1, 40)
  0 -0.4774      0 -0.3397      0  0.1657      0  0.1034      0  0.7875E-01
   ( 49,  1, 50)  ( 49,  1, 47)  ( 50,  1, 40)  ( 49,  1, 51)  ( 49,  1, 46)
  0 -0.4188E-01  0 -0.3838E-01  0 -0.2552E-01  0  0.2188E-01  0  0.2078E-01
   ( 49,  1, 59)  ( 49,  1, 50)  ( 42,  1,  2)  ( 40,  1,  2)  ( 43,  1,  2)
  0  0.2007E-01  0  0.2101E-01  0  0.1906E-01  0 -0.1764E-01  1 -0.8613E-02
   (  1,  1, 99)  ( 43,  1, 99)  ( 39,  1, 99)  ( 45,  1, 99)  (  1,  1, 99)


 FLOW MODEL IS TRANSIENT
 FLOW MODEL CONTAINS CONSTANT-HEAD CELLS


 MAXIMUM STEPSIZE DURING WHICH ANY PARTICLE CANNOT MOVE MORE THAN ONE CELL
 =  9.603    (WHEN MIN. R.F.=1)  AT K=   1, I=   1, J=  99

 MAXIMUM STEPSIZE WHICH MEETS STABILITY CRITERION OF THE ADVECTION TERM
 (FOR PURE FINITE-DIFFERENCE OPTION, MIXELM=0) 
 =  9.363    (WHEN MIN. R.F.=1)  AT K=   1, I=   1, J=  99


 TOTAL NUMBER OF POINT SOURCES/SINKS PRESENT IN THE FLOW MODEL =       100

 MAXIMUM STEPSIZE WHICH MEETS STABILITY CRITERION OF THE SINK & SOURCE TERM
 =  122.8    (WHEN MIN. R.F.=1)  AT K=   1, I=   1, J=   1

 MAXIMUM STEPSIZE WHICH MEETS STABILITY CRITERION OF THE DISPERSION TERM
 =  2.138    (WHEN MIN. R.F.=1)  AT K=   1, I=   1, J=  99
     5 CALLS TO GCG PACKAGE FOR TRANSPORT TIME STEP  22 IN FLOW TIME STEP   1 STRESS PERIOD   6
    15 TOTAL ITERATIONS
 
 SOLVING FOR HEAD 


     2 CALLS TO PCG ROUTINE FOR TIME STEP   1 IN STRESS PERIOD    6
    20 TOTAL ITERATIONS

 MAXIMUM HEAD CHANGE FOR EACH ITERATION (1 INDICATES THE FIRST INNER ITERATION):

    HEAD CHANGE    HEAD CHANGE    HEAD CHANGE    HEAD CHANGE    HEAD CHANGE 
   LAYER,ROW,COL  LAYER,ROW,COL  LAYER,ROW,COL  LAYER,ROW,COL  LAYER,ROW,COL
 ---------------------------------------------------------------------------
  1  0.8674E-03  0  0.2689E-03  0  0.1431E-03  0  0.8015E-04  0  0.5506E-04
   ( 50,  1, 48)  ( 48,  1, 56)  ( 46,  1, 61)  ( 43,  1, 66)  ( 39,  1, 69)
  0  0.3198E-04  0 -0.1907E-04  0 -0.1114E-04  0 -0.7394E-05  0 -0.4850E-05
   ( 50,  1, 66)  (  1,  1, 71)  (  1,  1, 76)  (  1,  1, 53)  (  1,  1, 58)
  0 -0.4282E-05  0 -0.3011E-05  0 -0.1887E-05  0 -0.1221E-05  0 -0.1076E-05
   (  2,  1, 45)  (  3,  1, 37)  (  6,  1, 33)  (  6,  1, 25)  (  4,  1,  5)
  0 -0.1196E-05  0 -0.1315E-05  0 -0.1170E-05  0 -0.8389E-06  1 -0.2502E-06
   (  1,  1,  7)  (  7,  1,  1)  (  3,  1,  3)  (  1,  1,  6)  ( 43,  1,  2)

 MAXIMUM RESIDUAL FOR EACH ITERATION (1 INDICATES THE FIRST INNER ITERATION):

    RESIDUAL       RESIDUAL       RESIDUAL       RESIDUAL       RESIDUAL    
   LAYER,ROW,COL  LAYER,ROW,COL  LAYER,ROW,COL  LAYER,ROW,COL  LAYER,ROW,COL
 ---------------------------------------------------------------------------
  1   6.335      0   4.067      0  -1.791      0  -1.126      0 -0.8632    
   ( 50,  1, 49)  ( 50,  1, 42)  ( 49,  1, 41)  ( 50,  1, 61)  ( 50,  1, 40)
  0 -0.4771      0 -0.3377      0  0.1624      0  0.1023      0  0.7719E-01
   ( 49,  1, 50)  ( 49,  1, 47)  ( 50,  1, 40)  ( 49,  1, 51)  ( 49,  1, 46)
  0 -0.4123E-01  0 -0.3766E-01  0 -0.2500E-01  0  0.2088E-01  0  0.1936E-01
   ( 49,  1, 58)  ( 49,  1, 50)  ( 42,  1,  2)  ( 40,  1,  2)  ( 43,  1,  2)
  0  0.1920E-01  0 -0.1923E-01  0  0.1746E-01  0 -0.1646E-01  1 -0.8040E-02
   (  1,  1, 99)  (  2,  1, 99)  ( 39,  1, 99)  ( 45,  1, 99)  (  1,  1, 99)


 FLOW MODEL IS TRANSIENT
 FLOW MODEL CONTAINS CONSTANT-HEAD CELLS


 MAXIMUM STEPSIZE DURING WHICH ANY PARTICLE CANNOT MOVE MORE THAN ONE CELL
 =  9.607    (WHEN MIN. R.F.=1)  AT K=   1, I=   1, J=  99

 MAXIMUM STEPSIZE WHICH MEETS STABILITY CRITERION OF THE ADVECTION TERM
 (FOR PURE FINITE-DIFFERENCE OPTION, MIXELM=0) 
 =  9.366    (WHEN MIN. R.F.=1)  AT K=   1, I=   1, J=  99


 TOTAL NUMBER OF POINT SOURCES/SINKS PRESENT IN THE FLOW MODEL =       100

 MAXIMUM STEPSIZE WHICH MEETS STABILITY CRITERION OF THE SINK & SOURCE TERM
 =  122.8    (WHEN MIN. R.F.=1)  AT K=   1, I=   1, J=   1

 MAXIMUM STEPSIZE WHICH MEETS STABILITY CRITERION OF THE DISPERSION TERM
 =  2.139    (WHEN MIN. R.F.=1)  AT K=   1, I=   1, J=  99
     5 CALLS TO GCG PACKAGE FOR TRANSPORT TIME STEP  23 IN FLOW TIME STEP   1 STRESS PERIOD   6
    15 TOTAL ITERATIONS
 
 SOLVING FOR HEAD 


     2 CALLS TO PCG ROUTINE FOR TIME STEP   1 IN STRESS PERIOD    6
    20 TOTAL ITERATIONS

 MAXIMUM HEAD CHANGE FOR EACH ITERATION (1 INDICATES THE FIRST INNER ITERATION):

    HEAD CHANGE    HEAD CHANGE    HEAD CHANGE    HEAD CHANGE    HEAD CHANGE 
   LAYER,ROW,COL  LAYER,ROW,COL  LAYER,ROW,COL  LAYER,ROW,COL  LAYER,ROW,COL
 ---------------------------------------------------------------------------
  1  0.8641E-03  0  0.2677E-03  0  0.1426E-03  0  0.7991E-04  0  0.5490E-04
   ( 50,  1, 48)  ( 48,  1, 55)  ( 46,  1, 61)  ( 43,  1, 66)  ( 39,  1, 69)
  0  0.3188E-04  0 -0.1905E-04  0 -0.1102E-04  0 -0.7269E-05  0 -0.4860E-05
   ( 50,  1, 66)  (  1,  1, 71)  (  1,  1, 76)  (  1,  1, 53)  (  1,  1, 57)
  0 -0.4323E-05  0 -0.3038E-05  0 -0.1933E-05  0 -0.1272E-05  0 -0.1142E-05
   (  2,  1, 45)  (  3,  1, 37)  (  6,  1, 33)  (  6,  1, 25)  (  4,  1,  5)
  0 -0.1283E-05  0 -0.1408E-05  0 -0.1232E-05  0 -0.8794E-06  1 -0.2581E-06
   (  1,  1,  7)  (  7,  1,  1)  (  3,  1,  3)  ( 48,  1, 12)  ( 43,  1,  2)

 MAXIMUM RESIDUAL FOR EACH ITERATION (1 INDICATES THE FIRST INNER ITERATION):

    RESIDUAL       RESIDUAL       RESIDUAL       RESIDUAL       RESIDUAL    
   LAYER,ROW,COL  LAYER,ROW,COL  LAYER,ROW,COL  LAYER,ROW,COL  LAYER,ROW,COL
 ---------------------------------------------------------------------------
  1   6.325      0   4.059      0  -1.811      0  -1.123      0 -0.8639    
   ( 50,  1, 49)  ( 50,  1, 42)  ( 49,  1, 41)  ( 50,  1, 61)  ( 50,  1, 39)
  0 -0.4772      0 -0.3365      0  0.1619      0  0.1024      0  0.7748E-01
   ( 49,  1, 50)  ( 49,  1, 47)  ( 50,  1, 39)  ( 49,  1, 51)  ( 49,  1, 46)
  0 -0.4140E-01  0 -0.3803E-01  0 -0.2544E-01  0  0.2175E-01  0  0.2035E-01
   ( 49,  1, 58)  ( 49,  1, 50)  ( 42,  1,  2)  ( 40,  1,  2)  ( 43,  1,  2)
  0  0.2035E-01  0 -0.2049E-01  0  0.1847E-01  0 -0.1722E-01  1 -0.8512E-02
   (  1,  1, 99)  (  2,  1, 99)  ( 39,  1, 99)  ( 45,  1, 99)  (  1,  1, 99)


 FLOW MODEL IS TRANSIENT
 FLOW MODEL CONTAINS CONSTANT-HEAD CELLS


 MAXIMUM STEPSIZE DURING WHICH ANY PARTICLE CANNOT MOVE MORE THAN ONE CELL
 =  9.610    (WHEN MIN. R.F.=1)  AT K=   1, I=   1, J=  99

 MAXIMUM STEPSIZE WHICH MEETS STABILITY CRITERION OF THE ADVECTION TERM
 (FOR PURE FINITE-DIFFERENCE OPTION, MIXELM=0) 
 =  9.369    (WHEN MIN. R.F.=1)  AT K=   1, I=   1, J=  99


 TOTAL NUMBER OF POINT SOURCES/SINKS PRESENT IN THE FLOW MODEL =       100

 MAXIMUM STEPSIZE WHICH MEETS STABILITY CRITERION OF THE SINK & SOURCE TERM
 =  122.8    (WHEN MIN. R.F.=1)  AT K=   1, I=   1, J=   1

 MAXIMUM STEPSIZE WHICH MEETS STABILITY CRITERION OF THE DISPERSION TERM
 =  2.140    (WHEN MIN. R.F.=1)  AT K=   1, I=   1, J=  99
     5 CALLS TO GCG PACKAGE FOR TRANSPORT TIME STEP  24 IN FLOW TIME STEP   1 STRESS PERIOD   6
    15 TOTAL ITERATIONS
 
 SOLVING FOR HEAD 


     2 CALLS TO PCG ROUTINE FOR TIME STEP   1 IN STRESS PERIOD    6
    16 TOTAL ITERATIONS

 MAXIMUM HEAD CHANGE FOR EACH ITERATION (1 INDICATES THE FIRST INNER ITERATION):

    HEAD CHANGE    HEAD CHANGE    HEAD CHANGE    HEAD CHANGE    HEAD CHANGE 
   LAYER,ROW,COL  LAYER,ROW,COL  LAYER,ROW,COL  LAYER,ROW,COL  LAYER,ROW,COL
 ---------------------------------------------------------------------------
  1  0.8619E-03  0  0.2670E-03  0  0.1423E-03  0  0.7977E-04  0  0.5481E-04
   ( 50,  1, 47)  ( 48,  1, 55)  ( 46,  1, 61)  ( 43,  1, 66)  ( 39,  1, 69)
  0  0.3179E-04  0 -0.1896E-04  0 -0.1106E-04  0 -0.7285E-05  0 -0.4786E-05
   ( 50,  1, 66)  (  1,  1, 71)  (  1,  1, 76)  (  1,  1, 53)  (  1,  1, 57)
  0 -0.4215E-05  0 -0.2938E-05  0 -0.1830E-05  0 -0.1165E-05  0 -0.9877E-06
   (  2,  1, 45)  (  3,  1, 36)  (  6,  1, 33)  (  6,  1, 25)  (  4,  1,  5)
  1 -0.3418E-06
   (  3,  1, 85)

 MAXIMUM RESIDUAL FOR EACH ITERATION (1 INDICATES THE FIRST INNER ITERATION):

    RESIDUAL       RESIDUAL       RESIDUAL       RESIDUAL       RESIDUAL    
   LAYER,ROW,COL  LAYER,ROW,COL  LAYER,ROW,COL  LAYER,ROW,COL  LAYER,ROW,COL
 ---------------------------------------------------------------------------
  1   6.313      0   4.041      0  -1.821      0  -1.118      0 -0.8631    
   ( 50,  1, 49)  ( 50,  1, 42)  ( 49,  1, 41)  ( 50,  1, 61)  ( 50,  1, 39)
  0 -0.4758      0 -0.3355      0  0.1626      0  0.1016      0  0.7661E-01
   ( 49,  1, 50)  ( 49,  1, 46)  ( 50,  1, 39)  ( 49,  1, 51)  ( 49,  1, 46)
  0 -0.4077E-01  0 -0.3717E-01  0 -0.2470E-01  0  0.2018E-01  0  0.1800E-01
   ( 49,  1, 58)  ( 49,  1, 50)  ( 42,  1,  2)  ( 40,  1,  2)  ( 43,  1,  2)
  1  0.8696E-02
   (  1,  1, 99)


 FLOW MODEL IS TRANSIENT
 FLOW MODEL CONTAINS CONSTANT-HEAD CELLS


 MAXIMUM STEPSIZE DURING WHICH ANY PARTICLE CANNOT MOVE MORE THAN ONE CELL
 =  9.613    (WHEN MIN. R.F.=1)  AT K=   1, I=   1, J=  99

 MAXIMUM STEPSIZE WHICH MEETS STABILITY CRITERION OF THE ADVECTION TERM
 (FOR PURE FINITE-DIFFERENCE OPTION, MIXELM=0) 
 =  9.373    (WHEN MIN. R.F.=1)  AT K=   1, I=   1, J=  99


 TOTAL NUMBER OF POINT SOURCES/SINKS PRESENT IN THE FLOW MODEL =       100

 MAXIMUM STEPSIZE WHICH MEETS STABILITY CRITERION OF THE SINK & SOURCE TERM
 =  122.8    (WHEN MIN. R.F.=1)  AT K=   1, I=   1, J=   1

 MAXIMUM STEPSIZE WHICH MEETS STABILITY CRITERION OF THE DISPERSION TERM
 =  2.141    (WHEN MIN. R.F.=1)  AT K=   1, I=   1, J=  99
     5 CALLS TO GCG PACKAGE FOR TRANSPORT TIME STEP  25 IN FLOW TIME STEP   1 STRESS PERIOD   6
    15 TOTAL ITERATIONS
 
 SOLVING FOR HEAD 


     2 CALLS TO PCG ROUTINE FOR TIME STEP   1 IN STRESS PERIOD    6
    20 TOTAL ITERATIONS

 MAXIMUM HEAD CHANGE FOR EACH ITERATION (1 INDICATES THE FIRST INNER ITERATION):

    HEAD CHANGE    HEAD CHANGE    HEAD CHANGE    HEAD CHANGE    HEAD CHANGE 
   LAYER,ROW,COL  LAYER,ROW,COL  LAYER,ROW,COL  LAYER,ROW,COL  LAYER,ROW,COL
 ---------------------------------------------------------------------------
  1  0.8599E-03  0  0.2664E-03  0  0.1420E-03  0  0.7962E-04  0  0.5480E-04
   ( 50,  1, 47)  ( 48,  1, 55)  ( 46,  1, 61)  ( 43,  1, 66)  ( 39,  1, 68)
  0  0.3166E-04  0 -0.1878E-04  0 -0.1077E-04  0 -0.7076E-05  0 -0.4864E-05
   ( 50,  1, 66)  (  1,  1, 71)  (  1,  1, 76)  (  1,  1, 53)  (  2,  1, 39)
  0 -0.4346E-05  0 -0.3064E-05  0 -0.1919E-05  0 -0.1242E-05  0 -0.1123E-05
   (  2,  1, 45)  (  3,  1, 36)  (  6,  1, 33)  (  6,  1, 25)  (  4,  1,  5)
  0 -0.1254E-05  0 -0.1378E-05  0 -0.1203E-05  0 -0.8540E-06  1 -0.2500E-06
   (  1,  1,  8)  (  8,  1,  1)  (  3,  1,  3)  (  1,  1,  6)  ( 43,  1,  2)

 MAXIMUM RESIDUAL FOR EACH ITERATION (1 INDICATES THE FIRST INNER ITERATION):

    RESIDUAL       RESIDUAL       RESIDUAL       RESIDUAL       RESIDUAL    
   LAYER,ROW,COL  LAYER,ROW,COL  LAYER,ROW,COL  LAYER,ROW,COL  LAYER,ROW,COL
 ---------------------------------------------------------------------------
  1   6.297      0   4.022      0  -1.829      0  -1.114      0 -0.8643    
   ( 50,  1, 49)  ( 50,  1, 42)  ( 49,  1, 41)  ( 50,  1, 61)  ( 50,  1, 39)
  0 -0.4752      0 -0.3361      0  0.1651      0  0.1019      0  0.7784E-01
   ( 49,  1, 50)  ( 49,  1, 46)  ( 50,  1, 39)  ( 49,  1, 51)  ( 49,  1, 46)
  0 -0.4139E-01  0 -0.3806E-01  0 -0.2536E-01  0  0.2167E-01  0  0.1975E-01
   ( 49,  1, 58)  ( 49,  1, 50)  ( 42,  1,  2)  ( 40,  1,  2)  ( 43,  1,  2)
  0  0.1982E-01  0 -0.1984E-01  0  0.1777E-01  0 -0.1659E-01  1 -0.8336E-02
   (  1,  1, 99)  (  2,  1, 99)  ( 40,  1, 99)  ( 45,  1, 99)  (  1,  1, 99)


 FLOW MODEL IS TRANSIENT
 FLOW MODEL CONTAINS CONSTANT-HEAD CELLS


 MAXIMUM STEPSIZE DURING WHICH ANY PARTICLE CANNOT MOVE MORE THAN ONE CELL
 =  9.617    (WHEN MIN. R.F.=1)  AT K=   1, I=   1, J=  99

 MAXIMUM STEPSIZE WHICH MEETS STABILITY CRITERION OF THE ADVECTION TERM
 (FOR PURE FINITE-DIFFERENCE OPTION, MIXELM=0) 
 =  9.376    (WHEN MIN. R.F.=1)  AT K=   1, I=   1, J=  99


 TOTAL NUMBER OF POINT SOURCES/SINKS PRESENT IN THE FLOW MODEL =       100

 MAXIMUM STEPSIZE WHICH MEETS STABILITY CRITERION OF THE SINK & SOURCE TERM
 =  122.8    (WHEN MIN. R.F.=1)  AT K=   1, I=   1, J=   1

 MAXIMUM STEPSIZE WHICH MEETS STABILITY CRITERION OF THE DISPERSION TERM
 =  2.141    (WHEN MIN. R.F.=1)  AT K=   1, I=   1, J=  99
     5 CALLS TO GCG PACKAGE FOR TRANSPORT TIME STEP  26 IN FLOW TIME STEP   1 STRESS PERIOD   6
    15 TOTAL ITERATIONS
 
 SOLVING FOR HEAD 


     2 CALLS TO PCG ROUTINE FOR TIME STEP   1 IN STRESS PERIOD    6
    20 TOTAL ITERATIONS

 MAXIMUM HEAD CHANGE FOR EACH ITERATION (1 INDICATES THE FIRST INNER ITERATION):

    HEAD CHANGE    HEAD CHANGE    HEAD CHANGE    HEAD CHANGE    HEAD CHANGE 
   LAYER,ROW,COL  LAYER,ROW,COL  LAYER,ROW,COL  LAYER,ROW,COL  LAYER,ROW,COL
 ---------------------------------------------------------------------------
  1  0.8578E-03  0  0.2652E-03  0  0.1413E-03  0  0.7933E-04  0  0.5462E-04
   ( 50,  1, 47)  ( 48,  1, 55)  ( 46,  1, 61)  ( 43,  1, 66)  ( 39,  1, 68)
  0  0.3159E-04  0 -0.1890E-04  0 -0.1102E-04  0 -0.7300E-05  0 -0.4828E-05
   ( 50,  1, 66)  (  1,  1, 71)  (  1,  1, 76)  (  1,  1, 53)  (  1,  1, 57)
  0 -0.4301E-05  0 -0.3068E-05  0 -0.1959E-05  0 -0.1296E-05  0 -0.1161E-05
   (  2,  1, 44)  (  3,  1, 36)  (  6,  1, 33)  (  6,  1, 25)  (  4,  1,  5)
  0 -0.1325E-05  0 -0.1445E-05  0 -0.1254E-05  0 -0.9117E-06  1 -0.2648E-06
   (  1,  1,  7)  (  7,  1,  1)  (  3,  1,  3)  ( 48,  1, 12)  ( 43,  1,  2)

 MAXIMUM RESIDUAL FOR EACH ITERATION (1 INDICATES THE FIRST INNER ITERATION):

    RESIDUAL       RESIDUAL       RESIDUAL       RESIDUAL       RESIDUAL    
   LAYER,ROW,COL  LAYER,ROW,COL  LAYER,ROW,COL  LAYER,ROW,COL  LAYER,ROW,COL
 ---------------------------------------------------------------------------
  1   6.280      0   3.998      0  -1.835      0  -1.115      0 -0.8633    
   ( 50,  1, 49)  ( 50,  1, 42)  ( 49,  1, 41)  ( 50,  1, 61)  ( 50,  1, 39)
  0 -0.4754      0 -0.3359      0  0.1638      0  0.1017      0  0.7670E-01
   ( 49,  1, 50)  ( 49,  1, 46)  ( 50,  1, 39)  ( 49,  1, 50)  ( 49,  1, 46)
  0 -0.4127E-01  0 -0.3811E-01  0 -0.2564E-01  0  0.2233E-01  0  0.2074E-01
   ( 49,  1, 58)  ( 49,  1, 49)  ( 43,  1,  2)  ( 40,  1,  2)  ( 43,  1,  2)
  0  0.2122E-01  0 -0.2123E-01  0  0.1870E-01  0 -0.1725E-01  1 -0.8682E-02
   (  1,  1, 99)  (  2,  1, 99)  ( 40,  1, 99)  ( 45,  1, 99)  (  1,  1, 99)


 FLOW MODEL IS TRANSIENT
 FLOW MODEL CONTAINS CONSTANT-HEAD CELLS


 MAXIMUM STEPSIZE DURING WHICH ANY PARTICLE CANNOT MOVE MORE THAN ONE CELL
 =  9.620    (WHEN MIN. R.F.=1)  AT K=   1, I=   1, J=  99

 MAXIMUM STEPSIZE WHICH MEETS STABILITY CRITERION OF THE ADVECTION TERM
 (FOR PURE FINITE-DIFFERENCE OPTION, MIXELM=0) 
 =  9.379    (WHEN MIN. R.F.=1)  AT K=   1, I=   1, J=  99


 TOTAL NUMBER OF POINT SOURCES/SINKS PRESENT IN THE FLOW MODEL =       100

 MAXIMUM STEPSIZE WHICH MEETS STABILITY CRITERION OF THE SINK & SOURCE TERM
 =  122.8    (WHEN MIN. R.F.=1)  AT K=   1, I=   1, J=   1

 MAXIMUM STEPSIZE WHICH MEETS STABILITY CRITERION OF THE DISPERSION TERM
 =  2.142    (WHEN MIN. R.F.=1)  AT K=   1, I=   1, J=  99
     5 CALLS TO GCG PACKAGE FOR TRANSPORT TIME STEP  27 IN FLOW TIME STEP   1 STRESS PERIOD   6
    15 TOTAL ITERATIONS
 
 SOLVING FOR HEAD 


     2 CALLS TO PCG ROUTINE FOR TIME STEP   1 IN STRESS PERIOD    6
    20 TOTAL ITERATIONS

 MAXIMUM HEAD CHANGE FOR EACH ITERATION (1 INDICATES THE FIRST INNER ITERATION):

    HEAD CHANGE    HEAD CHANGE    HEAD CHANGE    HEAD CHANGE    HEAD CHANGE 
   LAYER,ROW,COL  LAYER,ROW,COL  LAYER,ROW,COL  LAYER,ROW,COL  LAYER,ROW,COL
 ---------------------------------------------------------------------------
  1  0.8554E-03  0  0.2641E-03  0  0.1409E-03  0  0.7910E-04  0  0.5450E-04
   ( 50,  1, 47)  ( 48,  1, 55)  ( 46,  1, 61)  ( 43,  1, 66)  ( 39,  1, 68)
  0  0.3148E-04  0 -0.1894E-04  0 -0.1098E-04  0 -0.7219E-05  0 -0.4827E-05
   ( 50,  1, 66)  (  1,  1, 71)  (  1,  1, 76)  (  1,  1, 53)  (  1,  1, 57)
  0 -0.4322E-05  0 -0.3087E-05  0 -0.1986E-05  0 -0.1325E-05  0 -0.1196E-05
   (  2,  1, 44)  (  3,  1, 36)  (  6,  1, 33)  (  6,  1, 25)  (  5,  1,  5)
  0 -0.1374E-05  0 -0.1495E-05  0 -0.1282E-05  0 -0.9491E-06  1 -0.2685E-06
   (  1,  1,  7)  (  7,  1,  1)  (  3,  1,  3)  ( 48,  1, 12)  ( 43,  1,  2)

 MAXIMUM RESIDUAL FOR EACH ITERATION (1 INDICATES THE FIRST INNER ITERATION):

    RESIDUAL       RESIDUAL       RESIDUAL       RESIDUAL       RESIDUAL    
   LAYER,ROW,COL  LAYER,ROW,COL  LAYER,ROW,COL  LAYER,ROW,COL  LAYER,ROW,COL
 ---------------------------------------------------------------------------
  1   6.260      0   3.964      0  -1.829      0  -1.113      0 -0.8626    
   ( 50,  1, 49)  ( 50,  1, 42)  ( 49,  1, 41)  ( 50,  1, 61)  ( 50,  1, 39)
  0 -0.4732      0 -0.3353      0  0.1645      0  0.1017      0  0.7641E-01
   ( 49,  1, 50)  ( 49,  1, 46)  ( 50,  1, 39)  ( 49,  1, 50)  ( 49,  1, 46)
  0 -0.4134E-01  0 -0.3838E-01  0 -0.2624E-01  0  0.2284E-01  0  0.2121E-01
   ( 49,  1, 58)  ( 49,  1, 49)  ( 43,  1,  2)  ( 40,  1,  2)  ( 43,  1,  2)
  0  0.2196E-01  0 -0.2197E-01  0  0.1919E-01  0 -0.1759E-01  1 -0.8932E-02
   (  1,  1, 99)  (  2,  1, 99)  ( 40,  1, 99)  ( 45,  1, 99)  (  1,  1, 99)


 FLOW MODEL IS TRANSIENT
 FLOW MODEL CONTAINS CONSTANT-HEAD CELLS


 MAXIMUM STEPSIZE DURING WHICH ANY PARTICLE CANNOT MOVE MORE THAN ONE CELL
 =  9.623    (WHEN MIN. R.F.=1)  AT K=   1, I=   1, J=  99

 MAXIMUM STEPSIZE WHICH MEETS STABILITY CRITERION OF THE ADVECTION TERM
 (FOR PURE FINITE-DIFFERENCE OPTION, MIXELM=0) 
 =  9.382    (WHEN MIN. R.F.=1)  AT K=   1, I=   1, J=  99


 TOTAL NUMBER OF POINT SOURCES/SINKS PRESENT IN THE FLOW MODEL =       100

 MAXIMUM STEPSIZE WHICH MEETS STABILITY CRITERION OF THE SINK & SOURCE TERM
 =  122.8    (WHEN MIN. R.F.=1)  AT K=   1, I=   1, J=   1

 MAXIMUM STEPSIZE WHICH MEETS STABILITY CRITERION OF THE DISPERSION TERM
 =  2.143    (WHEN MIN. R.F.=1)  AT K=   1, I=   1, J=  99
     5 CALLS TO GCG PACKAGE FOR TRANSPORT TIME STEP  28 IN FLOW TIME STEP   1 STRESS PERIOD   6
    15 TOTAL ITERATIONS
 
 SOLVING FOR HEAD 


     2 CALLS TO PCG ROUTINE FOR TIME STEP   1 IN STRESS PERIOD    6
    20 TOTAL ITERATIONS

 MAXIMUM HEAD CHANGE FOR EACH ITERATION (1 INDICATES THE FIRST INNER ITERATION):

    HEAD CHANGE    HEAD CHANGE    HEAD CHANGE    HEAD CHANGE    HEAD CHANGE 
   LAYER,ROW,COL  LAYER,ROW,COL  LAYER,ROW,COL  LAYER,ROW,COL  LAYER,ROW,COL
 ---------------------------------------------------------------------------
  1  0.8527E-03  0  0.2631E-03  0  0.1403E-03  0  0.7877E-04  0  0.5432E-04
   ( 50,  1, 47)  ( 48,  1, 55)  ( 46,  1, 61)  ( 43,  1, 66)  ( 39,  1, 68)
  0  0.3140E-04  0 -0.1882E-04  0 -0.1096E-04  0 -0.7202E-05  0 -0.4796E-05
   ( 50,  1, 66)  (  1,  1, 71)  (  1,  1, 76)  (  1,  1, 53)  (  1,  1, 57)
  0 -0.4291E-05  0 -0.3043E-05  0 -0.1937E-05  0 -0.1275E-05  0 -0.1127E-05
   (  2,  1, 44)  (  3,  1, 36)  (  6,  1, 33)  (  6,  1, 25)  (  5,  1,  5)
  0 -0.1284E-05  0 -0.1401E-05  0 -0.1226E-05  0 -0.8819E-06  1 -0.2588E-06
   (  1,  1,  7)  (  7,  1,  1)  (  2,  1,  3)  ( 49,  1, 13)  ( 43,  1,  2)

 MAXIMUM RESIDUAL FOR EACH ITERATION (1 INDICATES THE FIRST INNER ITERATION):

    RESIDUAL       RESIDUAL       RESIDUAL       RESIDUAL       RESIDUAL    
   LAYER,ROW,COL  LAYER,ROW,COL  LAYER,ROW,COL  LAYER,ROW,COL  LAYER,ROW,COL
 ---------------------------------------------------------------------------
  1   6.236      0   3.963      0  -1.823      0  -1.112      0 -0.8603    
   ( 50,  1, 49)  ( 50,  1, 41)  ( 49,  1, 41)  ( 50,  1, 61)  ( 50,  1, 39)
  0 -0.4727      0 -0.3351      0  0.1649      0  0.1014      0  0.7613E-01
   ( 49,  1, 50)  ( 49,  1, 46)  ( 50,  1, 39)  ( 49,  1, 50)  ( 49,  1, 45)
  0 -0.4092E-01  0 -0.3799E-01  0 -0.2602E-01  0  0.2213E-01  0  0.2012E-01
   ( 49,  1, 58)  ( 49,  1, 49)  ( 43,  1,  2)  ( 40,  1,  2)  ( 43,  1,  2)
  0  0.2095E-01  0 -0.2078E-01  0  0.1814E-01  0 -0.1675E-01  1 -0.8538E-02
   (  1,  1, 99)  (  2,  1, 99)  ( 40,  1, 99)  ( 45,  1, 99)  (  1,  1, 99)


 FLOW MODEL IS TRANSIENT
 FLOW MODEL CONTAINS CONSTANT-HEAD CELLS


 MAXIMUM STEPSIZE DURING WHICH ANY PARTICLE CANNOT MOVE MORE THAN ONE CELL
 =  9.627    (WHEN MIN. R.F.=1)  AT K=   1, I=   1, J=  99

 MAXIMUM STEPSIZE WHICH MEETS STABILITY CRITERION OF THE ADVECTION TERM
 (FOR PURE FINITE-DIFFERENCE OPTION, MIXELM=0) 
 =  9.385    (WHEN MIN. R.F.=1)  AT K=   1, I=   1, J=  99


 TOTAL NUMBER OF POINT SOURCES/SINKS PRESENT IN THE FLOW MODEL =       100

 MAXIMUM STEPSIZE WHICH MEETS STABILITY CRITERION OF THE SINK & SOURCE TERM
 =  122.8    (WHEN MIN. R.F.=1)  AT K=   1, I=   1, J=   1

 MAXIMUM STEPSIZE WHICH MEETS STABILITY CRITERION OF THE DISPERSION TERM
 =  2.144    (WHEN MIN. R.F.=1)  AT K=   1, I=   1, J=  99
     5 CALLS TO GCG PACKAGE FOR TRANSPORT TIME STEP  29 IN FLOW TIME STEP   1 STRESS PERIOD   6
    15 TOTAL ITERATIONS
 
 SOLVING FOR HEAD 


     2 CALLS TO PCG ROUTINE FOR TIME STEP   1 IN STRESS PERIOD    6
    16 TOTAL ITERATIONS

 MAXIMUM HEAD CHANGE FOR EACH ITERATION (1 INDICATES THE FIRST INNER ITERATION):

    HEAD CHANGE    HEAD CHANGE    HEAD CHANGE    HEAD CHANGE    HEAD CHANGE 
   LAYER,ROW,COL  LAYER,ROW,COL  LAYER,ROW,COL  LAYER,ROW,COL  LAYER,ROW,COL
 ---------------------------------------------------------------------------
  1  0.8499E-03  0  0.2620E-03  0  0.1399E-03  0  0.7861E-04  0  0.5430E-04
   ( 50,  1, 47)  ( 48,  1, 55)  ( 46,  1, 61)  ( 43,  1, 65)  ( 39,  1, 68)
  0  0.3132E-04  0 -0.1879E-04  0 -0.1090E-04  0 -0.7097E-05  0 -0.4728E-05
   ( 50,  1, 66)  (  1,  1, 71)  (  1,  1, 76)  (  1,  1, 52)  (  1,  1, 57)
  0 -0.4187E-05  0 -0.2928E-05  0 -0.1832E-05  0 -0.1172E-05  0 -0.9906E-06
   (  2,  1, 44)  (  3,  1, 36)  (  6,  1, 33)  (  6,  1, 25)  (  5,  1,  5)
  1 -0.3304E-06
   (  3,  1, 85)

 MAXIMUM RESIDUAL FOR EACH ITERATION (1 INDICATES THE FIRST INNER ITERATION):

    RESIDUAL       RESIDUAL       RESIDUAL       RESIDUAL       RESIDUAL    
   LAYER,ROW,COL  LAYER,ROW,COL  LAYER,ROW,COL  LAYER,ROW,COL  LAYER,ROW,COL
 ---------------------------------------------------------------------------
  1   6.211      0   3.968      0  -1.805      0  -1.108      0 -0.8582    
   ( 50,  1, 49)  ( 50,  1, 41)  ( 49,  1, 41)  ( 50,  1, 61)  ( 50,  1, 39)
  0 -0.4703      0 -0.3341      0  0.1647      0  0.1007      0  0.7545E-01
   ( 49,  1, 50)  ( 49,  1, 46)  ( 50,  1, 39)  ( 49,  1, 50)  ( 49,  1, 45)
  0 -0.4025E-01  0 -0.3719E-01  0 -0.2544E-01  0  0.2064E-01  0  0.1792E-01
   ( 49,  1, 58)  ( 49,  1, 49)  ( 43,  1,  2)  ( 40,  1,  2)  ( 43,  1,  2)
  1  0.8532E-02
   (  1,  1, 99)


 FLOW MODEL IS TRANSIENT
 FLOW MODEL CONTAINS CONSTANT-HEAD CELLS


 MAXIMUM STEPSIZE DURING WHICH ANY PARTICLE CANNOT MOVE MORE THAN ONE CELL
 =  9.630    (WHEN MIN. R.F.=1)  AT K=   1, I=   1, J=  99

 MAXIMUM STEPSIZE WHICH MEETS STABILITY CRITERION OF THE ADVECTION TERM
 (FOR PURE FINITE-DIFFERENCE OPTION, MIXELM=0) 
 =  9.389    (WHEN MIN. R.F.=1)  AT K=   1, I=   1, J=  99


 TOTAL NUMBER OF POINT SOURCES/SINKS PRESENT IN THE FLOW MODEL =       100

 MAXIMUM STEPSIZE WHICH MEETS STABILITY CRITERION OF THE SINK & SOURCE TERM
 =  122.8    (WHEN MIN. R.F.=1)  AT K=   1, I=   1, J=   1

 MAXIMUM STEPSIZE WHICH MEETS STABILITY CRITERION OF THE DISPERSION TERM
 =  2.144    (WHEN MIN. R.F.=1)  AT K=   1, I=   1, J=  99
     5 CALLS TO GCG PACKAGE FOR TRANSPORT TIME STEP  30 IN FLOW TIME STEP   1 STRESS PERIOD   6
    15 TOTAL ITERATIONS
 
 SOLVING FOR HEAD 


     2 CALLS TO PCG ROUTINE FOR TIME STEP   1 IN STRESS PERIOD    6
    20 TOTAL ITERATIONS

 MAXIMUM HEAD CHANGE FOR EACH ITERATION (1 INDICATES THE FIRST INNER ITERATION):

    HEAD CHANGE    HEAD CHANGE    HEAD CHANGE    HEAD CHANGE    HEAD CHANGE 
   LAYER,ROW,COL  LAYER,ROW,COL  LAYER,ROW,COL  LAYER,ROW,COL  LAYER,ROW,COL
 ---------------------------------------------------------------------------
  1  0.8469E-03  0  0.2610E-03  0  0.1396E-03  0  0.7856E-04  0  0.5430E-04
   ( 50,  1, 47)  ( 48,  1, 55)  ( 46,  1, 60)  ( 43,  1, 65)  ( 39,  1, 68)
  0  0.3121E-04  0 -0.1855E-04  0 -0.1069E-04  0 -0.6937E-05  0 -0.4792E-05
   ( 50,  1, 65)  (  1,  1, 71)  (  1,  1, 75)  (  1,  1, 53)  (  1,  1, 56)
  0 -0.4266E-05  0 -0.2980E-05  0 -0.1861E-05  0 -0.1188E-05  0 -0.1029E-05
   (  2,  1, 44)  (  3,  1, 36)  (  5,  1, 31)  (  6,  1, 24)  (  5,  1,  5)
  0 -0.1145E-05  0 -0.1247E-05  0 -0.1114E-05  0 -0.8184E-06  1 -0.2349E-06
   (  1,  1,  7)  (  8,  1,  1)  (  3,  1,  3)  (  1,  1,  6)  ( 43,  1,  2)

 MAXIMUM RESIDUAL FOR EACH ITERATION (1 INDICATES THE FIRST INNER ITERATION):

    RESIDUAL       RESIDUAL       RESIDUAL       RESIDUAL       RESIDUAL    
   LAYER,ROW,COL  LAYER,ROW,COL  LAYER,ROW,COL  LAYER,ROW,COL  LAYER,ROW,COL
 ---------------------------------------------------------------------------
  1   6.192      0   3.966      0  -1.784      0  -1.104      0 -0.8564    
   ( 50,  1, 48)  ( 50,  1, 41)  ( 49,  1, 41)  ( 50,  1, 61)  ( 50,  1, 39)
  0 -0.4705      0 -0.3333      0  0.1663      0  0.1009      0  0.7652E-01
   ( 49,  1, 49)  ( 49,  1, 46)  ( 50,  1, 39)  ( 49,  1, 50)  ( 49,  1, 45)
  0 -0.4044E-01  0 -0.3765E-01  0 -0.2612E-01  0  0.2103E-01  0  0.1814E-01
   ( 49,  1, 57)  ( 49,  1, 49)  ( 43,  1,  2)  ( 40,  1,  2)  ( 43,  1,  2)
  0  0.1908E-01  0 -0.1857E-01  0  0.1614E-01  0 -0.1509E-01  1 -0.7793E-02
   (  1,  1, 99)  (  2,  1, 99)  ( 40,  1, 99)  ( 45,  1, 99)  (  1,  1, 99)


 FLOW MODEL IS TRANSIENT
 FLOW MODEL CONTAINS CONSTANT-HEAD CELLS


 MAXIMUM STEPSIZE DURING WHICH ANY PARTICLE CANNOT MOVE MORE THAN ONE CELL
 =  9.633    (WHEN MIN. R.F.=1)  AT K=   1, I=   1, J=  99

 MAXIMUM STEPSIZE WHICH MEETS STABILITY CRITERION OF THE ADVECTION TERM
 (FOR PURE FINITE-DIFFERENCE OPTION, MIXELM=0) 
 =  9.392    (WHEN MIN. R.F.=1)  AT K=   1, I=   1, J=  99


 TOTAL NUMBER OF POINT SOURCES/SINKS PRESENT IN THE FLOW MODEL =       100

 MAXIMUM STEPSIZE WHICH MEETS STABILITY CRITERION OF THE SINK & SOURCE TERM
 =  122.8    (WHEN MIN. R.F.=1)  AT K=   1, I=   1, J=   1

 MAXIMUM STEPSIZE WHICH MEETS STABILITY CRITERION OF THE DISPERSION TERM
 =  2.145    (WHEN MIN. R.F.=1)  AT K=   1, I=   1, J=  99
     5 CALLS TO GCG PACKAGE FOR TRANSPORT TIME STEP  31 IN FLOW TIME STEP   1 STRESS PERIOD   6
    15 TOTAL ITERATIONS
 
 SOLVING FOR HEAD 


     2 CALLS TO PCG ROUTINE FOR TIME STEP   1 IN STRESS PERIOD    6
    20 TOTAL ITERATIONS

 MAXIMUM HEAD CHANGE FOR EACH ITERATION (1 INDICATES THE FIRST INNER ITERATION):

    HEAD CHANGE    HEAD CHANGE    HEAD CHANGE    HEAD CHANGE    HEAD CHANGE 
   LAYER,ROW,COL  LAYER,ROW,COL  LAYER,ROW,COL  LAYER,ROW,COL  LAYER,ROW,COL
 ---------------------------------------------------------------------------
  1  0.8438E-03  0  0.2598E-03  0  0.1392E-03  0  0.7828E-04  0  0.5411E-04
   ( 50,  1, 47)  ( 48,  1, 55)  ( 46,  1, 60)  ( 43,  1, 65)  ( 39,  1, 68)
  0  0.3118E-04  0 -0.1868E-04  0 -0.1086E-04  0 -0.7091E-05  0 -0.4704E-05
   ( 50,  1, 65)  (  1,  1, 70)  (  1,  1, 76)  (  1,  1, 52)  (  1,  1, 57)
  0 -0.4184E-05  0 -0.2928E-05  0 -0.1844E-05  0 -0.1187E-05  0 -0.1006E-05
   (  2,  1, 44)  (  3,  1, 36)  (  6,  1, 32)  (  6,  1, 24)  (  5,  1,  5)
  0 -0.1119E-05  0 -0.1215E-05  0 -0.1103E-05  0 -0.8088E-06  1 -0.2358E-06
   (  1,  1,  7)  (  7,  1,  1)  (  2,  1,  3)  (  1,  1,  6)  ( 43,  1,  2)

 MAXIMUM RESIDUAL FOR EACH ITERATION (1 INDICATES THE FIRST INNER ITERATION):

    RESIDUAL       RESIDUAL       RESIDUAL       RESIDUAL       RESIDUAL    
   LAYER,ROW,COL  LAYER,ROW,COL  LAYER,ROW,COL  LAYER,ROW,COL  LAYER,ROW,COL
 ---------------------------------------------------------------------------
  1   6.181      0   3.962      0  -1.768      0  -1.103      0 -0.8524    
   ( 50,  1, 48)  ( 50,  1, 41)  ( 49,  1, 40)  ( 50,  1, 60)  ( 50,  1, 39)
  0 -0.4705      0 -0.3314      0  0.1633      0  0.1004      0  0.7557E-01
   ( 49,  1, 49)  ( 49,  1, 46)  ( 50,  1, 39)  ( 49,  1, 50)  ( 49,  1, 45)
  0 -0.4018E-01  0 -0.3733E-01  0 -0.2594E-01  0  0.2089E-01  0  0.1810E-01
   ( 49,  1, 57)  ( 49,  1, 49)  ( 43,  1,  2)  ( 40,  1,  2)  ( 43,  1,  2)
  0  0.1906E-01  0 -0.1836E-01  0  0.1583E-01  0 -0.1477E-01  1 -0.7638E-02
   (  1,  1, 99)  (  2,  1, 99)  ( 40,  1, 99)  ( 45,  1, 99)  (  1,  1, 99)


 FLOW MODEL IS TRANSIENT
 FLOW MODEL CONTAINS CONSTANT-HEAD CELLS


 MAXIMUM STEPSIZE DURING WHICH ANY PARTICLE CANNOT MOVE MORE THAN ONE CELL
 =  9.637    (WHEN MIN. R.F.=1)  AT K=   1, I=   1, J=  99

 MAXIMUM STEPSIZE WHICH MEETS STABILITY CRITERION OF THE ADVECTION TERM
 (FOR PURE FINITE-DIFFERENCE OPTION, MIXELM=0) 
 =  9.395    (WHEN MIN. R.F.=1)  AT K=   1, I=   1, J=  99


 TOTAL NUMBER OF POINT SOURCES/SINKS PRESENT IN THE FLOW MODEL =       100

 MAXIMUM STEPSIZE WHICH MEETS STABILITY CRITERION OF THE SINK & SOURCE TERM
 =  122.8    (WHEN MIN. R.F.=1)  AT K=   1, I=   1, J=   1

 MAXIMUM STEPSIZE WHICH MEETS STABILITY CRITERION OF THE DISPERSION TERM
 =  2.146    (WHEN MIN. R.F.=1)  AT K=   1, I=   1, J=  99
     5 CALLS TO GCG PACKAGE FOR TRANSPORT TIME STEP  32 IN FLOW TIME STEP   1 STRESS PERIOD   6
    15 TOTAL ITERATIONS
 
 SOLVING FOR HEAD 


     2 CALLS TO PCG ROUTINE FOR TIME STEP   1 IN STRESS PERIOD    6
    20 TOTAL ITERATIONS

 MAXIMUM HEAD CHANGE FOR EACH ITERATION (1 INDICATES THE FIRST INNER ITERATION):

    HEAD CHANGE    HEAD CHANGE    HEAD CHANGE    HEAD CHANGE    HEAD CHANGE 
   LAYER,ROW,COL  LAYER,ROW,COL  LAYER,ROW,COL  LAYER,ROW,COL  LAYER,ROW,COL
 ---------------------------------------------------------------------------
  1  0.8409E-03  0  0.2588E-03  0  0.1387E-03  0  0.7805E-04  0  0.5397E-04
   ( 50,  1, 46)  ( 48,  1, 54)  ( 46,  1, 60)  ( 43,  1, 65)  ( 39,  1, 68)
  0  0.3111E-04  0 -0.1864E-04  0 -0.1082E-04  0 -0.7050E-05  0 -0.4729E-05
   ( 50,  1, 65)  (  1,  1, 71)  (  1,  1, 76)  (  1,  1, 52)  (  1,  1, 56)
  0 -0.4180E-05  0 -0.2937E-05  0 -0.1865E-05  0 -0.1209E-05  0 -0.1025E-05
   (  2,  1, 44)  (  3,  1, 35)  (  6,  1, 32)  (  6,  1, 24)  (  5,  1,  5)
  0 -0.1149E-05  0 -0.1251E-05  0 -0.1129E-05  0 -0.8183E-06  1 -0.2380E-06
   (  1,  1,  6)  (  7,  1,  1)  (  2,  1,  3)  (  1,  1,  7)  ( 43,  1,  2)

 MAXIMUM RESIDUAL FOR EACH ITERATION (1 INDICATES THE FIRST INNER ITERATION):

    RESIDUAL       RESIDUAL       RESIDUAL       RESIDUAL       RESIDUAL    
   LAYER,ROW,COL  LAYER,ROW,COL  LAYER,ROW,COL  LAYER,ROW,COL  LAYER,ROW,COL
 ---------------------------------------------------------------------------
  1   6.172      0   3.952      0  -1.787      0  -1.103      0 -0.8531    
   ( 50,  1, 48)  ( 50,  1, 41)  ( 49,  1, 40)  ( 50,  1, 60)  ( 50,  1, 38)
  0 -0.4702      0 -0.3305      0  0.1623      0  0.1002      0  0.7556E-01
   ( 49,  1, 49)  ( 49,  1, 46)  ( 50,  1, 39)  ( 49,  1, 50)  ( 49,  1, 45)
  0 -0.4014E-01  0 -0.3748E-01  0 -0.2635E-01  0  0.2116E-01  0  0.1834E-01
   ( 49,  1, 57)  ( 49,  1, 49)  ( 43,  1,  2)  ( 40,  1,  2)  ( 43,  1,  2)
  0  0.1954E-01  0 -0.1884E-01  0  0.1617E-01  0 -0.1502E-01  1 -0.7825E-02
   (  1,  1, 99)  (  2,  1, 99)  ( 40,  1, 99)  ( 45,  1, 99)  (  1,  1, 99)


 FLOW MODEL IS TRANSIENT
 FLOW MODEL CONTAINS CONSTANT-HEAD CELLS


 MAXIMUM STEPSIZE DURING WHICH ANY PARTICLE CANNOT MOVE MORE THAN ONE CELL
 =  9.640    (WHEN MIN. R.F.=1)  AT K=   1, I=   1, J=  99

 MAXIMUM STEPSIZE WHICH MEETS STABILITY CRITERION OF THE ADVECTION TERM
 (FOR PURE FINITE-DIFFERENCE OPTION, MIXELM=0) 
 =  9.398    (WHEN MIN. R.F.=1)  AT K=   1, I=   1, J=  99


 TOTAL NUMBER OF POINT SOURCES/SINKS PRESENT IN THE FLOW MODEL =       100

 MAXIMUM STEPSIZE WHICH MEETS STABILITY CRITERION OF THE SINK & SOURCE TERM
 =  122.8    (WHEN MIN. R.F.=1)  AT K=   1, I=   1, J=   1

 MAXIMUM STEPSIZE WHICH MEETS STABILITY CRITERION OF THE DISPERSION TERM
 =  2.146    (WHEN MIN. R.F.=1)  AT K=   1, I=   1, J=  99
     5 CALLS TO GCG PACKAGE FOR TRANSPORT TIME STEP  33 IN FLOW TIME STEP   1 STRESS PERIOD   6
    15 TOTAL ITERATIONS
 
 SOLVING FOR HEAD 


     2 CALLS TO PCG ROUTINE FOR TIME STEP   1 IN STRESS PERIOD    6
    16 TOTAL ITERATIONS

 MAXIMUM HEAD CHANGE FOR EACH ITERATION (1 INDICATES THE FIRST INNER ITERATION):

    HEAD CHANGE    HEAD CHANGE    HEAD CHANGE    HEAD CHANGE    HEAD CHANGE 
   LAYER,ROW,COL  LAYER,ROW,COL  LAYER,ROW,COL  LAYER,ROW,COL  LAYER,ROW,COL
 ---------------------------------------------------------------------------
  1  0.8390E-03  0  0.2579E-03  0  0.1382E-03  0  0.7780E-04  0  0.5385E-04
   ( 50,  1, 46)  ( 48,  1, 54)  ( 46,  1, 60)  ( 43,  1, 65)  ( 39,  1, 68)
  0  0.3103E-04  0 -0.1859E-04  0 -0.1079E-04  0 -0.6973E-05  0 -0.4689E-05
   ( 50,  1, 65)  (  1,  1, 71)  (  1,  1, 76)  (  1,  1, 52)  (  1,  1, 56)
  0 -0.4133E-05  0 -0.2875E-05  0 -0.1808E-05  0 -0.1153E-05  0 -0.9482E-06
   (  2,  1, 44)  (  3,  1, 35)  (  6,  1, 32)  (  6,  1, 24)  (  5,  1,  5)
  1 -0.3076E-06
   (  3,  1, 85)

 MAXIMUM RESIDUAL FOR EACH ITERATION (1 INDICATES THE FIRST INNER ITERATION):

    RESIDUAL       RESIDUAL       RESIDUAL       RESIDUAL       RESIDUAL    
   LAYER,ROW,COL  LAYER,ROW,COL  LAYER,ROW,COL  LAYER,ROW,COL  LAYER,ROW,COL
 ---------------------------------------------------------------------------
  1   6.157      0   3.933      0  -1.805      0  -1.101      0 -0.8539    
   ( 50,  1, 48)  ( 50,  1, 41)  ( 49,  1, 40)  ( 50,  1, 60)  ( 50,  1, 38)
  0 -0.4692      0 -0.3303      0  0.1628      0  0.9961E-01  0  0.7510E-01
   ( 49,  1, 49)  ( 49,  1, 45)  ( 50,  1, 38)  ( 49,  1, 50)  ( 49,  1, 45)
  0 -0.3978E-01  0 -0.3706E-01  0 -0.2605E-01  0  0.2037E-01  0  0.1717E-01
   ( 49,  1, 57)  ( 49,  1, 49)  ( 43,  1,  2)  ( 40,  1,  2)  ( 43,  1,  2)
  1  0.8042E-02
   (  1,  1, 99)


 FLOW MODEL IS TRANSIENT
 FLOW MODEL CONTAINS CONSTANT-HEAD CELLS


 MAXIMUM STEPSIZE DURING WHICH ANY PARTICLE CANNOT MOVE MORE THAN ONE CELL
 =  9.643    (WHEN MIN. R.F.=1)  AT K=   1, I=   1, J=  99

 MAXIMUM STEPSIZE WHICH MEETS STABILITY CRITERION OF THE ADVECTION TERM
 (FOR PURE FINITE-DIFFERENCE OPTION, MIXELM=0) 
 =  9.401    (WHEN MIN. R.F.=1)  AT K=   1, I=   1, J=  99


 TOTAL NUMBER OF POINT SOURCES/SINKS PRESENT IN THE FLOW MODEL =       100

 MAXIMUM STEPSIZE WHICH MEETS STABILITY CRITERION OF THE SINK & SOURCE TERM
 =  122.8    (WHEN MIN. R.F.=1)  AT K=   1, I=   1, J=   1

 MAXIMUM STEPSIZE WHICH MEETS STABILITY CRITERION OF THE DISPERSION TERM
 =  2.147    (WHEN MIN. R.F.=1)  AT K=   1, I=   1, J=  99
     5 CALLS TO GCG PACKAGE FOR TRANSPORT TIME STEP  34 IN FLOW TIME STEP   1 STRESS PERIOD   6
    15 TOTAL ITERATIONS
 
 SOLVING FOR HEAD 


     2 CALLS TO PCG ROUTINE FOR TIME STEP   1 IN STRESS PERIOD    6
    20 TOTAL ITERATIONS

 MAXIMUM HEAD CHANGE FOR EACH ITERATION (1 INDICATES THE FIRST INNER ITERATION):

    HEAD CHANGE    HEAD CHANGE    HEAD CHANGE    HEAD CHANGE    HEAD CHANGE 
   LAYER,ROW,COL  LAYER,ROW,COL  LAYER,ROW,COL  LAYER,ROW,COL  LAYER,ROW,COL
 ---------------------------------------------------------------------------
  1  0.8368E-03  0  0.2571E-03  0  0.1380E-03  0  0.7770E-04  0  0.5384E-04
   ( 50,  1, 46)  ( 48,  1, 54)  ( 46,  1, 60)  ( 43,  1, 65)  ( 39,  1, 67)
  0  0.3088E-04  0 -0.1846E-04  0 -0.1060E-04  0 -0.6873E-05  0 -0.4833E-05
   ( 50,  1, 65)  (  1,  1, 71)  (  1,  1, 76)  (  1,  1, 52)  (  1,  1, 55)
  0 -0.4319E-05  0 -0.3091E-05  0 -0.1989E-05  0 -0.1325E-05  0 -0.1190E-05
   (  2,  1, 43)  (  3,  1, 35)  (  6,  1, 32)  (  6,  1, 24)  (  5,  1,  5)
  0 -0.1370E-05  0 -0.1484E-05  0 -0.1270E-05  0 -0.9487E-06  1 -0.2583E-06
   (  1,  1,  7)  (  7,  1,  1)  (  2,  1,  3)  ( 49,  1, 12)  ( 43,  1,  2)

 MAXIMUM RESIDUAL FOR EACH ITERATION (1 INDICATES THE FIRST INNER ITERATION):

    RESIDUAL       RESIDUAL       RESIDUAL       RESIDUAL       RESIDUAL    
   LAYER,ROW,COL  LAYER,ROW,COL  LAYER,ROW,COL  LAYER,ROW,COL  LAYER,ROW,COL
 ---------------------------------------------------------------------------
  1   6.140      0   3.913      0  -1.811      0  -1.097      0 -0.8540    
   ( 50,  1, 48)  ( 50,  1, 41)  ( 49,  1, 40)  ( 50,  1, 60)  ( 50,  1, 38)
  0 -0.4689      0 -0.3310      0  0.1657      0  0.1006      0  0.7669E-01
   ( 49,  1, 49)  ( 49,  1, 45)  ( 50,  1, 38)  ( 49,  1, 50)  ( 49,  1, 45)
  0 -0.4080E-01  0 -0.3858E-01  0 -0.2806E-01  0  0.2282E-01  0  0.2025E-01
   ( 49,  1, 57)  ( 49,  1, 49)  ( 43,  1,  2)  ( 40,  1,  2)  ( 43,  1,  2)
  0  0.2244E-01  0 -0.2197E-01  0  0.1859E-01  0 -0.1683E-01  1 -0.8938E-02
   (  1,  1, 99)  (  2,  1, 99)  ( 40,  1, 99)  ( 45,  1, 99)  (  1,  1, 99)


 FLOW MODEL IS TRANSIENT
 FLOW MODEL CONTAINS CONSTANT-HEAD CELLS


 MAXIMUM STEPSIZE DURING WHICH ANY PARTICLE CANNOT MOVE MORE THAN ONE CELL
 =  9.646    (WHEN MIN. R.F.=1)  AT K=   1, I=   1, J=  99

 MAXIMUM STEPSIZE WHICH MEETS STABILITY CRITERION OF THE ADVECTION TERM
 (FOR PURE FINITE-DIFFERENCE OPTION, MIXELM=0) 
 =  9.404    (WHEN MIN. R.F.=1)  AT K=   1, I=   1, J=  99


 TOTAL NUMBER OF POINT SOURCES/SINKS PRESENT IN THE FLOW MODEL =       100

 MAXIMUM STEPSIZE WHICH MEETS STABILITY CRITERION OF THE SINK & SOURCE TERM
 =  122.8    (WHEN MIN. R.F.=1)  AT K=   1, I=   1, J=   1

 MAXIMUM STEPSIZE WHICH MEETS STABILITY CRITERION OF THE DISPERSION TERM
 =  2.148    (WHEN MIN. R.F.=1)  AT K=   1, I=   1, J=  99
     5 CALLS TO GCG PACKAGE FOR TRANSPORT TIME STEP  35 IN FLOW TIME STEP   1 STRESS PERIOD   6
    15 TOTAL ITERATIONS
 
 SOLVING FOR HEAD 


     2 CALLS TO PCG ROUTINE FOR TIME STEP   1 IN STRESS PERIOD    6
    20 TOTAL ITERATIONS

 MAXIMUM HEAD CHANGE FOR EACH ITERATION (1 INDICATES THE FIRST INNER ITERATION):

    HEAD CHANGE    HEAD CHANGE    HEAD CHANGE    HEAD CHANGE    HEAD CHANGE 
   LAYER,ROW,COL  LAYER,ROW,COL  LAYER,ROW,COL  LAYER,ROW,COL  LAYER,ROW,COL
 ---------------------------------------------------------------------------
  1  0.8348E-03  0  0.2561E-03  0  0.1373E-03  0  0.7732E-04  0  0.5350E-04
   ( 50,  1, 46)  ( 48,  1, 54)  ( 46,  1, 60)  ( 43,  1, 65)  ( 39,  1, 67)
  0  0.3082E-04  0 -0.1858E-04  0 -0.1082E-04  0 -0.7082E-05  0 -0.4713E-05
   ( 50,  1, 65)  (  1,  1, 70)  (  1,  1, 75)  (  1,  1, 52)  (  1,  1, 56)
  0 -0.4229E-05  0 -0.3009E-05  0 -0.1937E-05  0 -0.1286E-05  0 -0.1108E-05
   (  2,  1, 43)  (  3,  1, 35)  (  6,  1, 32)  (  6,  1, 24)  (  6,  1,  5)
  0 -0.1273E-05  0 -0.1388E-05  0 -0.1227E-05  0 -0.8837E-06  1 -0.2521E-06
   (  1,  1,  6)  (  7,  1,  1)  (  2,  1,  3)  ( 49,  1, 12)  ( 43,  1,  2)

 MAXIMUM RESIDUAL FOR EACH ITERATION (1 INDICATES THE FIRST INNER ITERATION):

    RESIDUAL       RESIDUAL       RESIDUAL       RESIDUAL       RESIDUAL    
   LAYER,ROW,COL  LAYER,ROW,COL  LAYER,ROW,COL  LAYER,ROW,COL  LAYER,ROW,COL
 ---------------------------------------------------------------------------
  1   6.122      0   3.887      0  -1.812      0  -1.095      0 -0.8522    
   ( 50,  1, 48)  ( 50,  1, 41)  ( 49,  1, 40)  ( 50,  1, 60)  ( 50,  1, 38)
  0 -0.4671      0 -0.3301      0  0.1644      0  0.9990E-01  0  0.7517E-01
   ( 49,  1, 49)  ( 49,  1, 45)  ( 50,  1, 38)  ( 49,  1, 49)  ( 49,  1, 45)
  0 -0.4025E-01  0 -0.3795E-01  0 -0.2741E-01  0  0.2214E-01  0  0.1953E-01
   ( 49,  1, 57)  ( 49,  1, 48)  ( 43,  1,  2)  ( 40,  1,  2)  ( 43,  1,  2)
  0  0.2144E-01  0 -0.2075E-01  0  0.1754E-01  0 -0.1598E-01  1 -0.8474E-02
   (  1,  1, 99)  (  2,  1, 99)  ( 40,  1, 99)  ( 45,  1, 99)  (  1,  1, 99)


 FLOW MODEL IS TRANSIENT
 FLOW MODEL CONTAINS CONSTANT-HEAD CELLS


 MAXIMUM STEPSIZE DURING WHICH ANY PARTICLE CANNOT MOVE MORE THAN ONE CELL
 =  9.650    (WHEN MIN. R.F.=1)  AT K=   1, I=   1, J=  99

 MAXIMUM STEPSIZE WHICH MEETS STABILITY CRITERION OF THE ADVECTION TERM
 (FOR PURE FINITE-DIFFERENCE OPTION, MIXELM=0) 
 =  9.407    (WHEN MIN. R.F.=1)  AT K=   1, I=   1, J=  99


 TOTAL NUMBER OF POINT SOURCES/SINKS PRESENT IN THE FLOW MODEL =       100

 MAXIMUM STEPSIZE WHICH MEETS STABILITY CRITERION OF THE SINK & SOURCE TERM
 =  122.8    (WHEN MIN. R.F.=1)  AT K=   1, I=   1, J=   1

 MAXIMUM STEPSIZE WHICH MEETS STABILITY CRITERION OF THE DISPERSION TERM
 =  2.149    (WHEN MIN. R.F.=1)  AT K=   1, I=   1, J=  99
     5 CALLS TO GCG PACKAGE FOR TRANSPORT TIME STEP  36 IN FLOW TIME STEP   1 STRESS PERIOD   6
    15 TOTAL ITERATIONS
 
 SOLVING FOR HEAD 


     2 CALLS TO PCG ROUTINE FOR TIME STEP   1 IN STRESS PERIOD    6
    20 TOTAL ITERATIONS

 MAXIMUM HEAD CHANGE FOR EACH ITERATION (1 INDICATES THE FIRST INNER ITERATION):

    HEAD CHANGE    HEAD CHANGE    HEAD CHANGE    HEAD CHANGE    HEAD CHANGE 
   LAYER,ROW,COL  LAYER,ROW,COL  LAYER,ROW,COL  LAYER,ROW,COL  LAYER,ROW,COL
 ---------------------------------------------------------------------------
  1  0.8325E-03  0  0.2556E-03  0  0.1371E-03  0  0.7720E-04  0  0.5345E-04
   ( 50,  1, 46)  ( 48,  1, 54)  ( 46,  1, 60)  ( 43,  1, 65)  ( 39,  1, 67)
  0  0.3070E-04  0 -0.1846E-04  0 -0.1067E-04  0 -0.6918E-05  0 -0.4701E-05
   ( 50,  1, 65)  (  1,  1, 71)  (  1,  1, 76)  (  1,  1, 52)  (  1,  1, 56)
  0 -0.4130E-05  0 -0.2913E-05  0 -0.1862E-05  0 -0.1213E-05  0 -0.1014E-05
   (  2,  1, 43)  (  3,  1, 35)  (  6,  1, 32)  (  6,  1, 24)  (  6,  1,  5)
  0 -0.1141E-05  0 -0.1245E-05  0 -0.1128E-05  0 -0.8204E-06  1 -0.2345E-06
   (  1,  1,  6)  (  7,  1,  1)  (  2,  1,  3)  (  1,  1,  7)  ( 43,  1,  2)

 MAXIMUM RESIDUAL FOR EACH ITERATION (1 INDICATES THE FIRST INNER ITERATION):

    RESIDUAL       RESIDUAL       RESIDUAL       RESIDUAL       RESIDUAL    
   LAYER,ROW,COL  LAYER,ROW,COL  LAYER,ROW,COL  LAYER,ROW,COL  LAYER,ROW,COL
 ---------------------------------------------------------------------------
  1   6.101      0   3.857      0  -1.808      0  -1.089      0 -0.8510    
   ( 50,  1, 48)  ( 50,  1, 41)  ( 49,  1, 40)  ( 50,  1, 60)  ( 50,  1, 38)
  0 -0.4653      0 -0.3292      0  0.1645      0  0.9931E-01  0  0.7442E-01
   ( 49,  1, 49)  ( 49,  1, 45)  ( 50,  1, 38)  ( 49,  1, 49)  ( 49,  1, 45)
  0 -0.3975E-01  0 -0.3739E-01  0 -0.2710E-01  0  0.2107E-01  0  0.1797E-01
   ( 49,  1, 57)  ( 49,  1, 48)  ( 43,  1,  2)  ( 40,  1,  2)  ( 43,  1,  2)
  0  0.1971E-01  0 -0.1876E-01  0  0.1586E-01  0 -0.1462E-01  1 -0.7804E-02
   (  1,  1, 99)  (  2,  1, 99)  ( 40,  1, 99)  ( 45,  1, 99)  (  1,  1, 99)


 FLOW MODEL IS TRANSIENT
 FLOW MODEL CONTAINS CONSTANT-HEAD CELLS


 MAXIMUM STEPSIZE DURING WHICH ANY PARTICLE CANNOT MOVE MORE THAN ONE CELL
 =  9.653    (WHEN MIN. R.F.=1)  AT K=   1, I=   1, J=  99

 MAXIMUM STEPSIZE WHICH MEETS STABILITY CRITERION OF THE ADVECTION TERM
 (FOR PURE FINITE-DIFFERENCE OPTION, MIXELM=0) 
 =  9.410    (WHEN MIN. R.F.=1)  AT K=   1, I=   1, J=  99


 TOTAL NUMBER OF POINT SOURCES/SINKS PRESENT IN THE FLOW MODEL =       100

 MAXIMUM STEPSIZE WHICH MEETS STABILITY CRITERION OF THE SINK & SOURCE TERM
 =  122.8    (WHEN MIN. R.F.=1)  AT K=   1, I=   1, J=   1

 MAXIMUM STEPSIZE WHICH MEETS STABILITY CRITERION OF THE DISPERSION TERM
 =  2.149    (WHEN MIN. R.F.=1)  AT K=   1, I=   1, J=  99
     5 CALLS TO GCG PACKAGE FOR TRANSPORT TIME STEP  37 IN FLOW TIME STEP   1 STRESS PERIOD   6
    15 TOTAL ITERATIONS
 
 SOLVING FOR HEAD 


     2 CALLS TO PCG ROUTINE FOR TIME STEP   1 IN STRESS PERIOD    6
    20 TOTAL ITERATIONS

 MAXIMUM HEAD CHANGE FOR EACH ITERATION (1 INDICATES THE FIRST INNER ITERATION):

    HEAD CHANGE    HEAD CHANGE    HEAD CHANGE    HEAD CHANGE    HEAD CHANGE 
   LAYER,ROW,COL  LAYER,ROW,COL  LAYER,ROW,COL  LAYER,ROW,COL  LAYER,ROW,COL
 ---------------------------------------------------------------------------
  1  0.8300E-03  0  0.2545E-03  0  0.1365E-03  0  0.7695E-04  0  0.5336E-04
   ( 50,  1, 46)  ( 48,  1, 54)  ( 46,  1, 60)  ( 43,  1, 65)  ( 39,  1, 67)
  0  0.3057E-04  0 -0.1841E-04  0 -0.1064E-04  0 -0.6952E-05  0 -0.4731E-05
   ( 50,  1, 65)  (  1,  1, 71)  (  1,  1, 76)  (  1,  1, 52)  (  1,  1, 56)
  0 -0.4202E-05  0 -0.2988E-05  0 -0.1936E-05  0 -0.1291E-05  0 -0.1113E-05
   (  2,  1, 43)  (  3,  1, 35)  (  6,  1, 32)  (  6,  1, 24)  (  6,  1,  5)
  0 -0.1276E-05  0 -0.1391E-05  0 -0.1230E-05  0 -0.8884E-06  1 -0.2504E-06
   (  1,  1,  6)  (  7,  1,  1)  (  2,  1,  3)  ( 49,  1, 12)  ( 43,  1,  2)

 MAXIMUM RESIDUAL FOR EACH ITERATION (1 INDICATES THE FIRST INNER ITERATION):

    RESIDUAL       RESIDUAL       RESIDUAL       RESIDUAL       RESIDUAL    
   LAYER,ROW,COL  LAYER,ROW,COL  LAYER,ROW,COL  LAYER,ROW,COL  LAYER,ROW,COL
 ---------------------------------------------------------------------------
  1   6.078      0   3.857      0  -1.801      0  -1.087      0 -0.8501    
   ( 50,  1, 48)  ( 50,  1, 40)  ( 49,  1, 40)  ( 50,  1, 60)  ( 50,  1, 38)
  0 -0.4648      0 -0.3287      0  0.1654      0  0.9944E-01  0  0.7467E-01
   ( 49,  1, 49)  ( 49,  1, 45)  ( 50,  1, 38)  ( 49,  1, 49)  ( 49,  1, 44)
  0 -0.4008E-01  0 -0.3808E-01  0 -0.2782E-01  0  0.2220E-01  0  0.1939E-01
   ( 49,  1, 57)  ( 49,  1, 48)  ( 43,  1,  2)  ( 41,  1,  2)  ( 43,  1,  2)
  0  0.2165E-01  0 -0.2080E-01  0  0.1747E-01  0 -0.1584E-01  1 -0.8514E-02
   (  1,  1, 99)  (  2,  1, 99)  ( 40,  1, 99)  ( 45,  1, 99)  (  1,  1, 99)


 FLOW MODEL IS TRANSIENT
 FLOW MODEL CONTAINS CONSTANT-HEAD CELLS


 MAXIMUM STEPSIZE DURING WHICH ANY PARTICLE CANNOT MOVE MORE THAN ONE CELL
 =  9.656    (WHEN MIN. R.F.=1)  AT K=   1, I=   1, J=  99

 MAXIMUM STEPSIZE WHICH MEETS STABILITY CRITERION OF THE ADVECTION TERM
 (FOR PURE FINITE-DIFFERENCE OPTION, MIXELM=0) 
 =  9.413    (WHEN MIN. R.F.=1)  AT K=   1, I=   1, J=  99


 TOTAL NUMBER OF POINT SOURCES/SINKS PRESENT IN THE FLOW MODEL =       100

 MAXIMUM STEPSIZE WHICH MEETS STABILITY CRITERION OF THE SINK & SOURCE TERM
 =  122.8    (WHEN MIN. R.F.=1)  AT K=   1, I=   1, J=   1

 MAXIMUM STEPSIZE WHICH MEETS STABILITY CRITERION OF THE DISPERSION TERM
 =  2.150    (WHEN MIN. R.F.=1)  AT K=   1, I=   1, J=  99
     5 CALLS TO GCG PACKAGE FOR TRANSPORT TIME STEP  38 IN FLOW TIME STEP   1 STRESS PERIOD   6
    15 TOTAL ITERATIONS
 
 SOLVING FOR HEAD 


     2 CALLS TO PCG ROUTINE FOR TIME STEP   1 IN STRESS PERIOD    6
    20 TOTAL ITERATIONS

 MAXIMUM HEAD CHANGE FOR EACH ITERATION (1 INDICATES THE FIRST INNER ITERATION):

    HEAD CHANGE    HEAD CHANGE    HEAD CHANGE    HEAD CHANGE    HEAD CHANGE 
   LAYER,ROW,COL  LAYER,ROW,COL  LAYER,ROW,COL  LAYER,ROW,COL  LAYER,ROW,COL
 ---------------------------------------------------------------------------
  1  0.8273E-03  0  0.2534E-03  0  0.1360E-03  0  0.7669E-04  0  0.5325E-04
   ( 50,  1, 46)  ( 48,  1, 54)  ( 46,  1, 59)  ( 43,  1, 64)  ( 39,  1, 67)
  0  0.3047E-04  0 -0.1845E-04  0 -0.1069E-04  0 -0.6900E-05  0 -0.4682E-05
   ( 50,  1, 65)  (  1,  1, 70)  (  1,  1, 76)  (  1,  1, 52)  (  1,  1, 55)
  0 -0.4153E-05  0 -0.2933E-05  0 -0.1886E-05  0 -0.1240E-05  0 -0.1043E-05
   (  2,  1, 43)  (  3,  1, 35)  (  6,  1, 32)  (  6,  1, 24)  (  6,  1,  5)
  0 -0.1184E-05  0 -0.1298E-05  0 -0.1168E-05  0 -0.8361E-06  1 -0.2401E-06
   (  1,  1,  6)  (  7,  1,  1)  (  2,  1,  3)  (  1,  1,  7)  ( 43,  1,  2)

 MAXIMUM RESIDUAL FOR EACH ITERATION (1 INDICATES THE FIRST INNER ITERATION):

    RESIDUAL       RESIDUAL       RESIDUAL       RESIDUAL       RESIDUAL    
   LAYER,ROW,COL  LAYER,ROW,COL  LAYER,ROW,COL  LAYER,ROW,COL  LAYER,ROW,COL
 ---------------------------------------------------------------------------
  1   6.054      0   3.860      0  -1.786      0  -1.085      0 -0.8481    
   ( 50,  1, 48)  ( 50,  1, 40)  ( 49,  1, 40)  ( 50,  1, 60)  ( 50,  1, 38)
  0 -0.4634      0 -0.3281      0  0.1655      0  0.9903E-01  0  0.7426E-01
   ( 49,  1, 48)  ( 49,  1, 45)  ( 50,  1, 38)  ( 49,  1, 49)  ( 49,  1, 44)
  0 -0.3970E-01  0 -0.3770E-01  0 -0.2752E-01  0  0.2152E-01  0  0.1836E-01
   ( 49,  1, 56)  ( 49,  1, 48)  ( 43,  1,  2)  ( 41,  1,  2)  ( 43,  1,  2)
  0  0.2045E-01  0 -0.1946E-01  0  0.1633E-01  0 -0.1493E-01  1 -0.8044E-02
   (  1,  1, 99)  (  2,  1, 99)  ( 40,  1, 99)  ( 45,  1, 99)  (  1,  1, 99)


 FLOW MODEL IS TRANSIENT
 FLOW MODEL CONTAINS CONSTANT-HEAD CELLS


 MAXIMUM STEPSIZE DURING WHICH ANY PARTICLE CANNOT MOVE MORE THAN ONE CELL
 =  9.659    (WHEN MIN. R.F.=1)  AT K=   1, I=   1, J=  99

 MAXIMUM STEPSIZE WHICH MEETS STABILITY CRITERION OF THE ADVECTION TERM
 (FOR PURE FINITE-DIFFERENCE OPTION, MIXELM=0) 
 =  9.417    (WHEN MIN. R.F.=1)  AT K=   1, I=   1, J=  99


 TOTAL NUMBER OF POINT SOURCES/SINKS PRESENT IN THE FLOW MODEL =       100

 MAXIMUM STEPSIZE WHICH MEETS STABILITY CRITERION OF THE SINK & SOURCE TERM
 =  122.8    (WHEN MIN. R.F.=1)  AT K=   1, I=   1, J=   1

 MAXIMUM STEPSIZE WHICH MEETS STABILITY CRITERION OF THE DISPERSION TERM
 =  2.151    (WHEN MIN. R.F.=1)  AT K=   1, I=   1, J=  99
     5 CALLS TO GCG PACKAGE FOR TRANSPORT TIME STEP  39 IN FLOW TIME STEP   1 STRESS PERIOD   6
    15 TOTAL ITERATIONS
 
 SOLVING FOR HEAD 


     2 CALLS TO PCG ROUTINE FOR TIME STEP   1 IN STRESS PERIOD    6
     7 TOTAL ITERATIONS

 MAXIMUM HEAD CHANGE FOR EACH ITERATION (1 INDICATES THE FIRST INNER ITERATION):

    HEAD CHANGE    HEAD CHANGE    HEAD CHANGE    HEAD CHANGE    HEAD CHANGE 
   LAYER,ROW,COL  LAYER,ROW,COL  LAYER,ROW,COL  LAYER,ROW,COL  LAYER,ROW,COL
 ---------------------------------------------------------------------------
  1  0.5257E-03  0  0.9243E-04  0 -0.2280E-04  0  0.7114E-05  0  0.2384E-05
   ( 50,  1, 46)  ( 48,  1, 52)  ( 50,  1, 36)  ( 43,  1, 59)  ( 40,  1, 64)
  0  0.7594E-06  1  0.2070E-06
   ( 37,  1, 67)  ( 48,  1, 66)

 MAXIMUM RESIDUAL FOR EACH ITERATION (1 INDICATES THE FIRST INNER ITERATION):

    RESIDUAL       RESIDUAL       RESIDUAL       RESIDUAL       RESIDUAL    
   LAYER,ROW,COL  LAYER,ROW,COL  LAYER,ROW,COL  LAYER,ROW,COL  LAYER,ROW,COL
 ---------------------------------------------------------------------------
  1   4.124      0  -1.579      0 -0.3586      0  0.1345      0  0.4080E-01
   ( 50,  1, 47)  ( 49,  1, 41)  ( 50,  1, 52)  ( 49,  1, 44)  ( 49,  1, 37)
  0 -0.1836E-01  1 -0.4441E-02
   ( 49,  1, 46)  ( 49,  1, 47)


 FLOW MODEL IS TRANSIENT
 FLOW MODEL CONTAINS CONSTANT-HEAD CELLS


 MAXIMUM STEPSIZE DURING WHICH ANY PARTICLE CANNOT MOVE MORE THAN ONE CELL
 =  9.660    (WHEN MIN. R.F.=1)  AT K=   1, I=   1, J=  99

 MAXIMUM STEPSIZE WHICH MEETS STABILITY CRITERION OF THE ADVECTION TERM
 (FOR PURE FINITE-DIFFERENCE OPTION, MIXELM=0) 
 =  9.417    (WHEN MIN. R.F.=1)  AT K=   1, I=   1, J=  99


 TOTAL NUMBER OF POINT SOURCES/SINKS PRESENT IN THE FLOW MODEL =       100

 MAXIMUM STEPSIZE WHICH MEETS STABILITY CRITERION OF THE SINK & SOURCE TERM
 =  122.8    (WHEN MIN. R.F.=1)  AT K=   1, I=   1, J=   1

 MAXIMUM STEPSIZE WHICH MEETS STABILITY CRITERION OF THE DISPERSION TERM
 =  2.151    (WHEN MIN. R.F.=1)  AT K=   1, I=   1, J=  99
     2 CALLS TO GCG PACKAGE FOR TRANSPORT TIME STEP  40 IN FLOW TIME STEP   1 STRESS PERIOD   6
     3 TOTAL ITERATIONS
  MAXIMUM CONCENTRATION CHANGES FOR EACH ITERATION:
  MAX. CHANGE LAYER,ROW,COL MAX. CHANGE LAYER,ROW,COL MAX. CHANGE LAYER,ROW,COL MAX. CHANGE LAYER,ROW,COL MAX. CHANGE LAYER,ROW,COL
 ------------------------------------------------------------------------------------------------------------------------------------
   0.7013E-02 (  1,  1, 99)  0.3576E-06 (  2,  1, 98)   0.000     (  1,  1,  1)



 >>>>>>>>>>>>>>>>>>>>>>>>>>>>>>>>>>>>>>>>>>>>>>>>>>>>>>>FOR COMPONENT NO. 01<<<<<<<<<<<<<<<<<<<<<<<<<<<<<<<<<<<<<<<<<<<<<<<<<<<<<<<


                                            -------------------------------------------
                                                      TRANSPORT STEP NO.   40
                                            -------------------------------------------

 TOTAL ELAPSED TIME SINCE BEGINNING OF SIMULATION =   2191.000       D
 .....................................................................

                     CUMMULATIVE MASS BUDGETS AT END OF TRANSPORT STEP   40, TIME STEP    1, STRESS PERIOD    6
                     ------------------------------------------------------------------------------------------

                                                             IN                           OUT
                                                      ----------------             ----------------
                               CONSTANT CONCENTRATION:    2817567.                   -1567479.    
                                        CONSTANT HEAD:    0.000000                    0.000000    
                                                WELLS:    0.000000                    0.000000    
                               MASS STOR (FLOW MODEL):    113.1410                   -2073.993    
                                MASS STORAGE (SOLUTE):    924.5538                   -1249053.    
                            ---------------------------------------------------------------------------
                                              [TOTAL]:    2818605.        K          -2818606.        K

                                                          NET (IN - OUT):   -1.250000    
                                                   DISCREPANCY (PERCENT):  -0.4434817E-04

 HEAD WILL BE SAVED ON UNIT   99 AT END OF TIME STEP   1, STRESS PERIOD    6
1
  MASS BUDGET FOR ENTIRE MODEL AT END OF TIME STEP  1 IN STRESS PERIOD   6
  ------------------------------------------------------------------------------

     CUMULATIVE MASS      M       RATES FOR THIS TIME STEP      M/T
     ------------------                 ------------------------

           IN:                                      IN:
           ---                                      ---
             STORAGE =       75379.0703               STORAGE =         223.7254
       CONSTANT HEAD =    37641764.0000         CONSTANT HEAD =       10148.6377
               WELLS =    31234878.0000                 WELLS =       14256.0000
                DCDT =        1579.1725                  DCDT =       7.0349E-03

            TOTAL IN =    68953600.0000              TOTAL IN =       24628.3691

          OUT:                                     OUT:
          ----                                     ----
             STORAGE =     3967121.2500               STORAGE =         215.9267
       CONSTANT HEAD =    63966564.0000         CONSTANT HEAD =       24203.5801
               WELLS =           0.0000                 WELLS =           0.0000
                DCDT =     1021047.9375                  DCDT =         200.4824

           TOTAL OUT =    68954736.0000             TOTAL OUT =       24619.9883

            IN - OUT =       -1136.0000              IN - OUT =           8.3809

 PERCENT DISCREPANCY =          -0.00     PERCENT DISCREPANCY =           0.03



0


          TIME SUMMARY AT END OF TRANSPORT STEP   40 IN TIME STEP    1 IN STRESS PERIOD   6
                    SECONDS     MINUTES      HOURS       DAYS        YEARS
                    -----------------------------------------------------------
  TRANS STEP LENGTH  27675.      461.25      7.6875     0.32031     8.76968E-04
   TIME STEP LENGTH 3.15360E+07 5.25600E+05  8760.0      365.00     0.99932    
 STRESS PERIOD TIME 3.15360E+07 5.25600E+05  8760.0      365.00     0.99931    
         TOTAL TIME 1.89302E+08 3.15504E+06  52584.      2191.0      5.9986    
1


                                   ++++++++++++++++++++++++++++++++++++++++++++++++++++++++++++++
                                                       STRESS PERIOD NO.  007
                                   ++++++++++++++++++++++++++++++++++++++++++++++++++++++++++++++


 LENGTH OF CURRENT STRESS PERIOD =   365.0000    
 NUMBER OF TIME STEPS FOR CURRENT STRESS PERIOD =    1
 TIME STEP MULTIPLIER USED IN FLOW SOLUTION =   1.000000    
 USER-SPECIFIED TRANSPORT STEPSIZE =   0.000000       D
 MAXIMUM NUMBER OF TRANSPORT STEPS ALLOWED  IN ONE FLOW TIME STEP =     50000
 MULTIPLIER FOR SUCCESSIVE TRANSPORT STEPS  [USED IN IMPLICIT SCHEMES] =     1.000
 MAXIMUM TRANSPORT STEP SIZE  [USED IN IMPLICIT SCHEMES] =   0.000000       D
1
                            STRESS PERIOD NO.    7, LENGTH =   365.0000    
                            -----------------------------------------------

                              NUMBER OF TIME STEPS =     1

                               MULTIPLIER FOR DELT =     1.000

                            INITIAL TIME STEP SIZE =   365.0000    

 NO. OF POINT SINKS/SOURCES OF SPECIFIED CONCONCENTRATIONS =    0 IN STRESS PERIOD  7

 WELL NO.  LAYER   ROW   COL   STRESS RATE         NOPRINT         
 ------------------------------------------------------------------

     50 WELLS


                                          ================================================
                                                         FROM TIME =   2191.0     TO    2556.0    

 
 SOLVING FOR HEAD 


     2 CALLS TO PCG ROUTINE FOR TIME STEP   1 IN STRESS PERIOD    7
    15 TOTAL ITERATIONS

 MAXIMUM HEAD CHANGE FOR EACH ITERATION (1 INDICATES THE FIRST INNER ITERATION):

    HEAD CHANGE    HEAD CHANGE    HEAD CHANGE    HEAD CHANGE    HEAD CHANGE 
   LAYER,ROW,COL  LAYER,ROW,COL  LAYER,ROW,COL  LAYER,ROW,COL  LAYER,ROW,COL
 ---------------------------------------------------------------------------
  1  0.4212E-03  0  0.1225E-03  0  0.6854E-04  0 -0.4838E-04  0 -0.3707E-04
   ( 50,  1, 52)  ( 47,  1, 61)  ( 44,  1, 66)  (  4,  1, 84)  (  4,  1, 76)
  0 -0.2250E-04  0 -0.1070E-04  0 -0.5766E-05  0 -0.3662E-05  0 -0.3018E-05
   (  5,  1, 69)  (  1,  1, 75)  (  5,  1, 51)  (  4,  1, 36)  (  1,  1, 53)
  0 -0.2632E-05  0  0.2008E-05  0  0.1277E-05  0  0.7316E-06  1  0.2975E-06
   (  1,  1, 44)  (  3,  1, 81)  (  4,  1, 77)  (  1,  1, 68)  (  6,  1, 30)

 MAXIMUM RESIDUAL FOR EACH ITERATION (1 INDICATES THE FIRST INNER ITERATION):

    RESIDUAL       RESIDUAL       RESIDUAL       RESIDUAL       RESIDUAL    
   LAYER,ROW,COL  LAYER,ROW,COL  LAYER,ROW,COL  LAYER,ROW,COL  LAYER,ROW,COL
 ---------------------------------------------------------------------------
  1   4.552      0   4.811      0   3.499      0  -2.680      0   1.728    
   (  2,  1, 99)  (  1,  1, 99)  (  1,  1, 99)  (  2,  1, 99)  (  2,  1, 98)
  0 -0.9103      0 -0.6152      0 -0.3546      0  0.1948      0 -0.1660    
   (  2,  1, 96)  (  2,  1, 97)  (  2,  1, 98)  (  3,  1, 98)  (  3,  1, 97)
  0  0.1143      0  0.8450E-01  0  0.4891E-01  0 -0.2627E-01  1  0.1250E-01
   (  2,  1, 98)  (  3,  1, 96)  (  3,  1, 97)  (  4,  1, 97)  (  2,  1, 99)


 FLOW MODEL IS TRANSIENT
 FLOW MODEL CONTAINS CONSTANT-HEAD CELLS


 MAXIMUM STEPSIZE DURING WHICH ANY PARTICLE CANNOT MOVE MORE THAN ONE CELL
 =  9.644    (WHEN MIN. R.F.=1)  AT K=   1, I=   1, J=  99

 MAXIMUM STEPSIZE WHICH MEETS STABILITY CRITERION OF THE ADVECTION TERM
 (FOR PURE FINITE-DIFFERENCE OPTION, MIXELM=0) 
 =  9.396    (WHEN MIN. R.F.=1)  AT K=   1, I=   1, J=  99


 TOTAL NUMBER OF POINT SOURCES/SINKS PRESENT IN THE FLOW MODEL =       100

 MAXIMUM STEPSIZE WHICH MEETS STABILITY CRITERION OF THE SINK & SOURCE TERM
 =  122.8    (WHEN MIN. R.F.=1)  AT K=   1, I=   1, J=   1

 MAXIMUM STEPSIZE WHICH MEETS STABILITY CRITERION OF THE DISPERSION TERM
 =  2.146    (WHEN MIN. R.F.=1)  AT K=   1, I=   1, J=  99


     5 CALLS TO GCG PACKAGE FOR TRANSPORT TIME STEP   1 IN FLOW TIME STEP   1 STRESS PERIOD   7
    15 TOTAL ITERATIONS

 OUTPUT CONTROL FOR STRESS PERIOD    7   TIME STEP   1
    SAVE HEAD FOR ALL LAYERS
    SAVE BUDGET FOR ALL LAYERS
    SAVE BUDGET
 
 SOLVING FOR HEAD 


     2 CALLS TO PCG ROUTINE FOR TIME STEP   1 IN STRESS PERIOD    7
    16 TOTAL ITERATIONS

 MAXIMUM HEAD CHANGE FOR EACH ITERATION (1 INDICATES THE FIRST INNER ITERATION):

    HEAD CHANGE    HEAD CHANGE    HEAD CHANGE    HEAD CHANGE    HEAD CHANGE 
   LAYER,ROW,COL  LAYER,ROW,COL  LAYER,ROW,COL  LAYER,ROW,COL  LAYER,ROW,COL
 ---------------------------------------------------------------------------
  1  0.8064E-03  0  0.2478E-03  0  0.1354E-03  0  0.7635E-04  0  0.5218E-04
   ( 50,  1, 45)  ( 48,  1, 53)  ( 46,  1, 59)  ( 43,  1, 64)  ( 39,  1, 67)
  0 -0.2936E-04  0 -0.2138E-04  0 -0.1170E-04  0 -0.8114E-05  0 -0.4733E-05
   (  2,  1, 75)  (  3,  1, 70)  (  1,  1, 74)  (  3,  1, 53)  (  1,  1, 57)
  0 -0.3938E-05  0 -0.3242E-05  0 -0.2020E-05  0 -0.1193E-05  0 -0.9646E-06
   (  2,  1, 42)  (  1,  1, 47)  (  2,  1, 39)  (  5,  1, 36)  (  1,  1, 25)
  1 -0.3846E-06
   (  3,  1, 83)

 MAXIMUM RESIDUAL FOR EACH ITERATION (1 INDICATES THE FIRST INNER ITERATION):

    RESIDUAL       RESIDUAL       RESIDUAL       RESIDUAL       RESIDUAL    
   LAYER,ROW,COL  LAYER,ROW,COL  LAYER,ROW,COL  LAYER,ROW,COL  LAYER,ROW,COL
 ---------------------------------------------------------------------------
  1   5.855      0   3.782      0  -1.989      0  -1.090      0 -0.8405    
   ( 50,  1, 47)  ( 50,  1, 40)  (  1,  1, 99)  ( 50,  1, 59)  ( 50,  1, 38)
  0  0.4382      0 -0.3166      0  0.2174      0  0.9860E-01  0  0.7508E-01
   (  1,  1, 99)  ( 49,  1, 44)  (  2,  1, 98)  ( 49,  1, 49)  ( 49,  1, 44)
  0 -0.4191E-01  0 -0.3848E-01  0 -0.2690E-01  0  0.2071E-01  0  0.1893E-01
   (  4,  1, 96)  ( 49,  1, 48)  ( 43,  1,  2)  ( 40,  1,  2)  ( 43,  1,  2)
  1  0.1259E-01
   (  1,  1, 99)


 FLOW MODEL IS TRANSIENT
 FLOW MODEL CONTAINS CONSTANT-HEAD CELLS


 MAXIMUM STEPSIZE DURING WHICH ANY PARTICLE CANNOT MOVE MORE THAN ONE CELL
 =  9.664    (WHEN MIN. R.F.=1)  AT K=   1, I=   1, J=  99

 MAXIMUM STEPSIZE WHICH MEETS STABILITY CRITERION OF THE ADVECTION TERM
 (FOR PURE FINITE-DIFFERENCE OPTION, MIXELM=0) 
 =  9.421    (WHEN MIN. R.F.=1)  AT K=   1, I=   1, J=  99


 TOTAL NUMBER OF POINT SOURCES/SINKS PRESENT IN THE FLOW MODEL =       100

 MAXIMUM STEPSIZE WHICH MEETS STABILITY CRITERION OF THE SINK & SOURCE TERM
 =  122.8    (WHEN MIN. R.F.=1)  AT K=   1, I=   1, J=   1

 MAXIMUM STEPSIZE WHICH MEETS STABILITY CRITERION OF THE DISPERSION TERM
 =  2.152    (WHEN MIN. R.F.=1)  AT K=   1, I=   1, J=  99
     5 CALLS TO GCG PACKAGE FOR TRANSPORT TIME STEP   2 IN FLOW TIME STEP   1 STRESS PERIOD   7
    15 TOTAL ITERATIONS
 
 SOLVING FOR HEAD 


     2 CALLS TO PCG ROUTINE FOR TIME STEP   1 IN STRESS PERIOD    7
    16 TOTAL ITERATIONS

 MAXIMUM HEAD CHANGE FOR EACH ITERATION (1 INDICATES THE FIRST INNER ITERATION):

    HEAD CHANGE    HEAD CHANGE    HEAD CHANGE    HEAD CHANGE    HEAD CHANGE 
   LAYER,ROW,COL  LAYER,ROW,COL  LAYER,ROW,COL  LAYER,ROW,COL  LAYER,ROW,COL
 ---------------------------------------------------------------------------
  1  0.8163E-03  0  0.2493E-03  0  0.1345E-03  0  0.7575E-04  0  0.5243E-04
   ( 50,  1, 45)  ( 48,  1, 53)  ( 46,  1, 59)  ( 43,  1, 64)  ( 39,  1, 66)
  0  0.2983E-04  0 -0.1867E-04  0 -0.1083E-04  0 -0.6711E-05  0 -0.4831E-05
   ( 50,  1, 64)  (  1,  1, 71)  (  2,  1, 67)  (  1,  1, 51)  (  1,  1, 54)
  0 -0.4197E-05  0 -0.2929E-05  0 -0.1861E-05  0 -0.1196E-05  0 -0.9991E-06
   (  2,  1, 43)  (  3,  1, 34)  (  6,  1, 31)  (  6,  1, 23)  (  3,  1, 12)
  1 -0.3125E-06
   (  3,  1, 86)

 MAXIMUM RESIDUAL FOR EACH ITERATION (1 INDICATES THE FIRST INNER ITERATION):

    RESIDUAL       RESIDUAL       RESIDUAL       RESIDUAL       RESIDUAL    
   LAYER,ROW,COL  LAYER,ROW,COL  LAYER,ROW,COL  LAYER,ROW,COL  LAYER,ROW,COL
 ---------------------------------------------------------------------------
  1   6.004      0   3.839      0  -1.761      0  -1.079      0 -0.8408    
   ( 50,  1, 47)  ( 50,  1, 40)  ( 49,  1, 39)  ( 50,  1, 59)  ( 50,  1, 37)
  0 -0.4609      0 -0.3248      0  0.1663      0  0.9897E-01  0  0.7485E-01
   ( 49,  1, 48)  ( 49,  1, 45)  ( 50,  1, 38)  ( 49,  1, 49)  ( 49,  1, 44)
  0 -0.3926E-01  0 -0.3746E-01  0 -0.2802E-01  0  0.2200E-01  0  0.1761E-01
   ( 49,  1, 56)  ( 49,  1, 48)  ( 43,  1,  2)  ( 41,  1,  2)  ( 44,  1,  2)
  1  0.8463E-02
   (  1,  1, 99)


 FLOW MODEL IS TRANSIENT
 FLOW MODEL CONTAINS CONSTANT-HEAD CELLS


 MAXIMUM STEPSIZE DURING WHICH ANY PARTICLE CANNOT MOVE MORE THAN ONE CELL
 =  9.668    (WHEN MIN. R.F.=1)  AT K=   1, I=   1, J=  99

 MAXIMUM STEPSIZE WHICH MEETS STABILITY CRITERION OF THE ADVECTION TERM
 (FOR PURE FINITE-DIFFERENCE OPTION, MIXELM=0) 
 =  9.424    (WHEN MIN. R.F.=1)  AT K=   1, I=   1, J=  99


 TOTAL NUMBER OF POINT SOURCES/SINKS PRESENT IN THE FLOW MODEL =       100

 MAXIMUM STEPSIZE WHICH MEETS STABILITY CRITERION OF THE SINK & SOURCE TERM
 =  122.8    (WHEN MIN. R.F.=1)  AT K=   1, I=   1, J=   1

 MAXIMUM STEPSIZE WHICH MEETS STABILITY CRITERION OF THE DISPERSION TERM
 =  2.152    (WHEN MIN. R.F.=1)  AT K=   1, I=   1, J=  99
     5 CALLS TO GCG PACKAGE FOR TRANSPORT TIME STEP   3 IN FLOW TIME STEP   1 STRESS PERIOD   7
    15 TOTAL ITERATIONS
 
 SOLVING FOR HEAD 


     2 CALLS TO PCG ROUTINE FOR TIME STEP   1 IN STRESS PERIOD    7
    20 TOTAL ITERATIONS

 MAXIMUM HEAD CHANGE FOR EACH ITERATION (1 INDICATES THE FIRST INNER ITERATION):

    HEAD CHANGE    HEAD CHANGE    HEAD CHANGE    HEAD CHANGE    HEAD CHANGE 
   LAYER,ROW,COL  LAYER,ROW,COL  LAYER,ROW,COL  LAYER,ROW,COL  LAYER,ROW,COL
 ---------------------------------------------------------------------------
  1  0.8167E-03  0  0.2493E-03  0  0.1345E-03  0  0.7590E-04  0  0.5289E-04
   ( 50,  1, 45)  ( 48,  1, 53)  ( 46,  1, 59)  ( 43,  1, 64)  ( 39,  1, 66)
  0  0.3003E-04  0 -0.1830E-04  0 -0.1068E-04  0 -0.6846E-05  0 -0.4763E-05
   ( 50,  1, 64)  (  1,  1, 69)  (  1,  1, 74)  (  1,  1, 51)  (  1,  1, 55)
  0 -0.4263E-05  0 -0.3087E-05  0 -0.2027E-05  0 -0.1359E-05  0 -0.1192E-05
   (  2,  1, 42)  (  3,  1, 34)  (  6,  1, 31)  (  6,  1, 23)  (  3,  1, 12)
  0 -0.1375E-05  0 -0.1527E-05  0 -0.1313E-05  0 -0.9955E-06  1 -0.2613E-06
   (  1,  1,  6)  (  7,  1,  1)  (  2,  1,  3)  ( 49,  1, 12)  ( 43,  1,  2)

 MAXIMUM RESIDUAL FOR EACH ITERATION (1 INDICATES THE FIRST INNER ITERATION):

    RESIDUAL       RESIDUAL       RESIDUAL       RESIDUAL       RESIDUAL    
   LAYER,ROW,COL  LAYER,ROW,COL  LAYER,ROW,COL  LAYER,ROW,COL  LAYER,ROW,COL
 ---------------------------------------------------------------------------
  1   6.006      0   3.833      0  -1.778      0  -1.077      0 -0.8432    
   ( 50,  1, 47)  ( 50,  1, 40)  ( 49,  1, 39)  ( 50,  1, 59)  ( 50,  1, 37)
  0 -0.4625      0 -0.3243      0  0.1642      0  0.9922E-01  0  0.7519E-01
   ( 49,  1, 48)  ( 49,  1, 44)  ( 50,  1, 37)  ( 49,  1, 49)  ( 49,  1, 44)
  0 -0.4004E-01  0 -0.3868E-01  0 -0.2939E-01  0  0.2452E-01  0  0.2049E-01
   ( 49,  1, 56)  ( 49,  1, 48)  ( 43,  1,  2)  ( 41,  1,  2)  ( 44,  1,  2)
  0  0.2364E-01  0 -0.2253E-01  0  0.1860E-01  0  0.1653E-01  1 -0.9143E-02
   (  1,  1, 99)  (  2,  1, 99)  ( 40,  1, 99)  ( 36,  1, 99)  (  1,  1, 99)


 FLOW MODEL IS TRANSIENT
 FLOW MODEL CONTAINS CONSTANT-HEAD CELLS


 MAXIMUM STEPSIZE DURING WHICH ANY PARTICLE CANNOT MOVE MORE THAN ONE CELL
 =  9.671    (WHEN MIN. R.F.=1)  AT K=   1, I=   1, J=  99

 MAXIMUM STEPSIZE WHICH MEETS STABILITY CRITERION OF THE ADVECTION TERM
 (FOR PURE FINITE-DIFFERENCE OPTION, MIXELM=0) 
 =  9.428    (WHEN MIN. R.F.=1)  AT K=   1, I=   1, J=  99


 TOTAL NUMBER OF POINT SOURCES/SINKS PRESENT IN THE FLOW MODEL =       100

 MAXIMUM STEPSIZE WHICH MEETS STABILITY CRITERION OF THE SINK & SOURCE TERM
 =  122.8    (WHEN MIN. R.F.=1)  AT K=   1, I=   1, J=   1

 MAXIMUM STEPSIZE WHICH MEETS STABILITY CRITERION OF THE DISPERSION TERM
 =  2.153    (WHEN MIN. R.F.=1)  AT K=   1, I=   1, J=  99
     5 CALLS TO GCG PACKAGE FOR TRANSPORT TIME STEP   4 IN FLOW TIME STEP   1 STRESS PERIOD   7
    15 TOTAL ITERATIONS
 
 SOLVING FOR HEAD 


     2 CALLS TO PCG ROUTINE FOR TIME STEP   1 IN STRESS PERIOD    7
    20 TOTAL ITERATIONS

 MAXIMUM HEAD CHANGE FOR EACH ITERATION (1 INDICATES THE FIRST INNER ITERATION):

    HEAD CHANGE    HEAD CHANGE    HEAD CHANGE    HEAD CHANGE    HEAD CHANGE 
   LAYER,ROW,COL  LAYER,ROW,COL  LAYER,ROW,COL  LAYER,ROW,COL  LAYER,ROW,COL
 ---------------------------------------------------------------------------
  1  0.8149E-03  0  0.2485E-03  0  0.1340E-03  0  0.7567E-04  0  0.5261E-04
   ( 50,  1, 45)  ( 48,  1, 53)  ( 46,  1, 59)  ( 43,  1, 64)  ( 39,  1, 67)
  0  0.3006E-04  0 -0.1827E-04  0 -0.1051E-04  0 -0.6812E-05  0 -0.4657E-05
   ( 50,  1, 64)  (  1,  1, 70)  (  1,  1, 75)  (  1,  1, 51)  (  1,  1, 55)
  0 -0.4070E-05  0 -0.2892E-05  0 -0.1871E-05  0 -0.1229E-05  0 -0.1028E-05
   (  2,  1, 43)  (  3,  1, 34)  (  6,  1, 31)  (  4,  1,  8)  (  3,  1, 12)
  0 -0.1146E-05  0 -0.1271E-05  0 -0.1156E-05  0 -0.8365E-06  1 -0.2300E-06
   (  1,  1,  6)  (  7,  1,  1)  (  2,  1,  3)  (  1,  1,  7)  ( 43,  1,  2)

 MAXIMUM RESIDUAL FOR EACH ITERATION (1 INDICATES THE FIRST INNER ITERATION):

    RESIDUAL       RESIDUAL       RESIDUAL       RESIDUAL       RESIDUAL    
   LAYER,ROW,COL  LAYER,ROW,COL  LAYER,ROW,COL  LAYER,ROW,COL  LAYER,ROW,COL
 ---------------------------------------------------------------------------
  1   5.988      0   3.813      0  -1.788      0  -1.077      0 -0.8421    
   ( 50,  1, 47)  ( 50,  1, 40)  ( 49,  1, 39)  ( 50,  1, 59)  ( 50,  1, 37)
  0 -0.4618      0 -0.3246      0  0.1635      0  0.9801E-01  0  0.7368E-01
   ( 49,  1, 48)  ( 49,  1, 44)  ( 50,  1, 37)  ( 49,  1, 48)  ( 49,  1, 44)
  0 -0.3909E-01  0 -0.3735E-01  0 -0.2798E-01  0  0.2219E-01  0  0.1768E-01
   ( 49,  1, 56)  ( 49,  1, 48)  ( 43,  1,  2)  ( 41,  1,  2)  ( 44,  1,  2)
  0  0.2022E-01  0 -0.1884E-01  0  0.1570E-01  0  0.1434E-01  1 -0.7899E-02
   (  1,  1, 99)  (  2,  1, 99)  ( 40,  1, 99)  ( 36,  1, 99)  (  1,  1, 99)


 FLOW MODEL IS TRANSIENT
 FLOW MODEL CONTAINS CONSTANT-HEAD CELLS


 MAXIMUM STEPSIZE DURING WHICH ANY PARTICLE CANNOT MOVE MORE THAN ONE CELL
 =  9.675    (WHEN MIN. R.F.=1)  AT K=   1, I=   1, J=  99

 MAXIMUM STEPSIZE WHICH MEETS STABILITY CRITERION OF THE ADVECTION TERM
 (FOR PURE FINITE-DIFFERENCE OPTION, MIXELM=0) 
 =  9.431    (WHEN MIN. R.F.=1)  AT K=   1, I=   1, J=  99


 TOTAL NUMBER OF POINT SOURCES/SINKS PRESENT IN THE FLOW MODEL =       100

 MAXIMUM STEPSIZE WHICH MEETS STABILITY CRITERION OF THE SINK & SOURCE TERM
 =  122.8    (WHEN MIN. R.F.=1)  AT K=   1, I=   1, J=   1

 MAXIMUM STEPSIZE WHICH MEETS STABILITY CRITERION OF THE DISPERSION TERM
 =  2.154    (WHEN MIN. R.F.=1)  AT K=   1, I=   1, J=  99
     5 CALLS TO GCG PACKAGE FOR TRANSPORT TIME STEP   5 IN FLOW TIME STEP   1 STRESS PERIOD   7
    15 TOTAL ITERATIONS
 
 SOLVING FOR HEAD 


     2 CALLS TO PCG ROUTINE FOR TIME STEP   1 IN STRESS PERIOD    7
    20 TOTAL ITERATIONS

 MAXIMUM HEAD CHANGE FOR EACH ITERATION (1 INDICATES THE FIRST INNER ITERATION):

    HEAD CHANGE    HEAD CHANGE    HEAD CHANGE    HEAD CHANGE    HEAD CHANGE 
   LAYER,ROW,COL  LAYER,ROW,COL  LAYER,ROW,COL  LAYER,ROW,COL  LAYER,ROW,COL
 ---------------------------------------------------------------------------
  1  0.8129E-03  0  0.2477E-03  0  0.1336E-03  0  0.7553E-04  0  0.5259E-04
   ( 50,  1, 45)  ( 48,  1, 53)  ( 46,  1, 59)  ( 43,  1, 64)  ( 39,  1, 66)
  0  0.2997E-04  0 -0.1824E-04  0 -0.1053E-04  0 -0.6782E-05  0 -0.4670E-05
   ( 50,  1, 64)  (  1,  1, 70)  (  1,  1, 75)  (  1,  1, 51)  (  1,  1, 55)
  0 -0.4105E-05  0 -0.2928E-05  0 -0.1918E-05  0 -0.1284E-05  0 -0.1087E-05
   (  2,  1, 42)  (  3,  1, 34)  (  6,  1, 31)  (  4,  1,  7)  (  3,  1, 12)
  0 -0.1223E-05  0 -0.1356E-05  0 -0.1212E-05  0 -0.8694E-06  1 -0.2389E-06
   (  1,  1,  6)  (  7,  1,  1)  (  2,  1,  3)  ( 49,  1, 12)  ( 43,  1,  2)

 MAXIMUM RESIDUAL FOR EACH ITERATION (1 INDICATES THE FIRST INNER ITERATION):

    RESIDUAL       RESIDUAL       RESIDUAL       RESIDUAL       RESIDUAL    
   LAYER,ROW,COL  LAYER,ROW,COL  LAYER,ROW,COL  LAYER,ROW,COL  LAYER,ROW,COL
 ---------------------------------------------------------------------------
  1   5.972      0   3.789      0  -1.794      0  -1.074      0 -0.8426    
   ( 50,  1, 47)  ( 50,  1, 40)  ( 49,  1, 39)  ( 50,  1, 59)  ( 50,  1, 37)
  0 -0.4604      0 -0.3247      0  0.1649      0  0.9823E-01  0  0.7364E-01
   ( 49,  1, 48)  ( 49,  1, 44)  ( 50,  1, 37)  ( 49,  1, 48)  ( 49,  1, 44)
  0 -0.3924E-01  0 -0.3777E-01  0 -0.2843E-01  0  0.2305E-01  0  0.1867E-01
   ( 49,  1, 56)  ( 49,  1, 47)  ( 43,  1,  2)  ( 41,  1,  2)  ( 44,  1,  2)
  0  0.2138E-01  0 -0.1998E-01  0  0.1654E-01  0  0.1499E-01  1 -0.8281E-02
   (  1,  1, 99)  (  2,  1, 99)  ( 40,  1, 99)  ( 36,  1, 99)  (  1,  1, 99)


 FLOW MODEL IS TRANSIENT
 FLOW MODEL CONTAINS CONSTANT-HEAD CELLS


 MAXIMUM STEPSIZE DURING WHICH ANY PARTICLE CANNOT MOVE MORE THAN ONE CELL
 =  9.678    (WHEN MIN. R.F.=1)  AT K=   1, I=   1, J=  99

 MAXIMUM STEPSIZE WHICH MEETS STABILITY CRITERION OF THE ADVECTION TERM
 (FOR PURE FINITE-DIFFERENCE OPTION, MIXELM=0) 
 =  9.434    (WHEN MIN. R.F.=1)  AT K=   1, I=   1, J=  99


 TOTAL NUMBER OF POINT SOURCES/SINKS PRESENT IN THE FLOW MODEL =       100

 MAXIMUM STEPSIZE WHICH MEETS STABILITY CRITERION OF THE SINK & SOURCE TERM
 =  122.8    (WHEN MIN. R.F.=1)  AT K=   1, I=   1, J=   1

 MAXIMUM STEPSIZE WHICH MEETS STABILITY CRITERION OF THE DISPERSION TERM
 =  2.155    (WHEN MIN. R.F.=1)  AT K=   1, I=   1, J=  99
     5 CALLS TO GCG PACKAGE FOR TRANSPORT TIME STEP   6 IN FLOW TIME STEP   1 STRESS PERIOD   7
    15 TOTAL ITERATIONS
 
 SOLVING FOR HEAD 


     2 CALLS TO PCG ROUTINE FOR TIME STEP   1 IN STRESS PERIOD    7
    22 TOTAL ITERATIONS

 MAXIMUM HEAD CHANGE FOR EACH ITERATION (1 INDICATES THE FIRST INNER ITERATION):

    HEAD CHANGE    HEAD CHANGE    HEAD CHANGE    HEAD CHANGE    HEAD CHANGE 
   LAYER,ROW,COL  LAYER,ROW,COL  LAYER,ROW,COL  LAYER,ROW,COL  LAYER,ROW,COL
 ---------------------------------------------------------------------------
  1  0.8104E-03  0  0.2467E-03  0  0.1330E-03  0  0.7520E-04  0  0.5234E-04
   ( 50,  1, 45)  ( 48,  1, 53)  ( 46,  1, 59)  ( 43,  1, 64)  ( 39,  1, 66)
  0  0.2988E-04  0 -0.1819E-04  0 -0.1051E-04  0 -0.6812E-05  0 -0.4710E-05
   ( 50,  1, 64)  (  1,  1, 70)  (  1,  1, 75)  (  1,  1, 51)  (  1,  1, 55)
  0 -0.4197E-05  0 -0.3031E-05  0 -0.2023E-05  0 -0.1409E-05  0 -0.1229E-05
   (  2,  1, 42)  (  3,  1, 34)  (  6,  1, 31)  (  4,  1,  7)  (  3,  1, 12)
  0 -0.1410E-05  0 -0.1550E-05  0 -0.1329E-05  0 -0.1015E-05  0 -0.1010E-05
   (  1,  1,  6)  (  7,  1,  1)  (  2,  1,  3)  ( 49,  1, 12)  ( 49,  1,  5)
  0 -0.8224E-06  1 -0.1221E-06
   ( 50,  1,  3)  (  4,  1, 34)

 MAXIMUM RESIDUAL FOR EACH ITERATION (1 INDICATES THE FIRST INNER ITERATION):

    RESIDUAL       RESIDUAL       RESIDUAL       RESIDUAL       RESIDUAL    
   LAYER,ROW,COL  LAYER,ROW,COL  LAYER,ROW,COL  LAYER,ROW,COL  LAYER,ROW,COL
 ---------------------------------------------------------------------------
  1   5.948      0   3.761      0  -1.794      0  -1.074      0 -0.8418    
   ( 50,  1, 47)  ( 50,  1, 40)  ( 49,  1, 39)  ( 50,  1, 59)  ( 50,  1, 37)
  0 -0.4598      0 -0.3245      0  0.1658      0  0.9869E-01  0  0.7400E-01
   ( 49,  1, 48)  ( 49,  1, 44)  ( 50,  1, 37)  ( 49,  1, 48)  ( 49,  1, 44)
  0 -0.3966E-01  0 -0.3872E-01  0 -0.2935E-01  0  0.2498E-01  0  0.2108E-01
   ( 49,  1, 56)  ( 49,  1, 47)  ( 43,  1,  2)  ( 41,  1,  2)  ( 44,  1,  2)
  0  0.2418E-01  0 -0.2275E-01  0  0.1852E-01  0  0.1639E-01  0 -0.1472E-01
   (  1,  1, 99)  (  2,  1, 99)  ( 40,  1, 99)  ( 36,  1, 99)  ( 42,  1, 99)
  0 -0.1167E-01  1 -0.4790E-02
   ( 39,  1, 99)  ( 38,  1, 99)


 FLOW MODEL IS TRANSIENT
 FLOW MODEL CONTAINS CONSTANT-HEAD CELLS


 MAXIMUM STEPSIZE DURING WHICH ANY PARTICLE CANNOT MOVE MORE THAN ONE CELL
 =  9.681    (WHEN MIN. R.F.=1)  AT K=   1, I=   1, J=  99

 MAXIMUM STEPSIZE WHICH MEETS STABILITY CRITERION OF THE ADVECTION TERM
 (FOR PURE FINITE-DIFFERENCE OPTION, MIXELM=0) 
 =  9.437    (WHEN MIN. R.F.=1)  AT K=   1, I=   1, J=  99


 TOTAL NUMBER OF POINT SOURCES/SINKS PRESENT IN THE FLOW MODEL =       100

 MAXIMUM STEPSIZE WHICH MEETS STABILITY CRITERION OF THE SINK & SOURCE TERM
 =  122.8    (WHEN MIN. R.F.=1)  AT K=   1, I=   1, J=   1

 MAXIMUM STEPSIZE WHICH MEETS STABILITY CRITERION OF THE DISPERSION TERM
 =  2.155    (WHEN MIN. R.F.=1)  AT K=   1, I=   1, J=  99
     5 CALLS TO GCG PACKAGE FOR TRANSPORT TIME STEP   7 IN FLOW TIME STEP   1 STRESS PERIOD   7
    15 TOTAL ITERATIONS
 
 SOLVING FOR HEAD 


     2 CALLS TO PCG ROUTINE FOR TIME STEP   1 IN STRESS PERIOD    7
    20 TOTAL ITERATIONS

 MAXIMUM HEAD CHANGE FOR EACH ITERATION (1 INDICATES THE FIRST INNER ITERATION):

    HEAD CHANGE    HEAD CHANGE    HEAD CHANGE    HEAD CHANGE    HEAD CHANGE 
   LAYER,ROW,COL  LAYER,ROW,COL  LAYER,ROW,COL  LAYER,ROW,COL  LAYER,ROW,COL
 ---------------------------------------------------------------------------
  1  0.8080E-03  0  0.2459E-03  0  0.1328E-03  0  0.7511E-04  0  0.5248E-04
   ( 50,  1, 45)  ( 48,  1, 53)  ( 46,  1, 59)  ( 43,  1, 64)  ( 39,  1, 66)
  0  0.2977E-04  0 -0.1809E-04  0 -0.1045E-04  0 -0.6711E-05  0 -0.4663E-05
   ( 50,  1, 64)  (  1,  1, 70)  (  1,  1, 75)  (  1,  1, 50)  (  1,  1, 55)
  0 -0.4034E-05  0 -0.2841E-05  0 -0.1858E-05  0 -0.1246E-05  0 -0.1023E-05
   (  2,  1, 42)  (  3,  1, 34)  (  6,  1, 31)  (  4,  1,  7)  (  3,  1, 12)
  0 -0.1131E-05  0 -0.1252E-05  0 -0.1140E-05  0 -0.8322E-06  1 -0.2253E-06
   (  1,  1,  6)  (  6,  1,  1)  (  2,  1,  3)  (  1,  1,  7)  ( 43,  1,  2)

 MAXIMUM RESIDUAL FOR EACH ITERATION (1 INDICATES THE FIRST INNER ITERATION):

    RESIDUAL       RESIDUAL       RESIDUAL       RESIDUAL       RESIDUAL    
   LAYER,ROW,COL  LAYER,ROW,COL  LAYER,ROW,COL  LAYER,ROW,COL  LAYER,ROW,COL
 ---------------------------------------------------------------------------
  1   5.926      0   3.746      0  -1.782      0  -1.068      0 -0.8403    
   ( 50,  1, 47)  ( 50,  1, 39)  ( 49,  1, 39)  ( 50,  1, 59)  ( 50,  1, 37)
  0 -0.4578      0 -0.3239      0  0.1662      0  0.9787E-01  0  0.7259E-01
   ( 49,  1, 48)  ( 49,  1, 44)  ( 50,  1, 37)  ( 49,  1, 48)  ( 49,  1, 44)
  0 -0.3872E-01  0 -0.3744E-01  0 -0.2804E-01  0  0.2239E-01  0  0.1766E-01
   ( 49,  1, 56)  ( 49,  1, 47)  ( 43,  1,  2)  ( 41,  1,  2)  ( 44,  1,  2)
  0  0.2003E-01  0 -0.1842E-01  0  0.1526E-01  0  0.1401E-01  1 -0.7754E-02
   (  1,  1, 99)  (  2,  1, 99)  ( 40,  1, 99)  ( 36,  1, 99)  (  1,  1, 99)


 FLOW MODEL IS TRANSIENT
 FLOW MODEL CONTAINS CONSTANT-HEAD CELLS


 MAXIMUM STEPSIZE DURING WHICH ANY PARTICLE CANNOT MOVE MORE THAN ONE CELL
 =  9.684    (WHEN MIN. R.F.=1)  AT K=   1, I=   1, J=  99

 MAXIMUM STEPSIZE WHICH MEETS STABILITY CRITERION OF THE ADVECTION TERM
 (FOR PURE FINITE-DIFFERENCE OPTION, MIXELM=0) 
 =  9.440    (WHEN MIN. R.F.=1)  AT K=   1, I=   1, J=  99


 TOTAL NUMBER OF POINT SOURCES/SINKS PRESENT IN THE FLOW MODEL =       100

 MAXIMUM STEPSIZE WHICH MEETS STABILITY CRITERION OF THE SINK & SOURCE TERM
 =  122.8    (WHEN MIN. R.F.=1)  AT K=   1, I=   1, J=   1

 MAXIMUM STEPSIZE WHICH MEETS STABILITY CRITERION OF THE DISPERSION TERM
 =  2.156    (WHEN MIN. R.F.=1)  AT K=   1, I=   1, J=  99
     5 CALLS TO GCG PACKAGE FOR TRANSPORT TIME STEP   8 IN FLOW TIME STEP   1 STRESS PERIOD   7
    15 TOTAL ITERATIONS
 
 SOLVING FOR HEAD 


     2 CALLS TO PCG ROUTINE FOR TIME STEP   1 IN STRESS PERIOD    7
    20 TOTAL ITERATIONS

 MAXIMUM HEAD CHANGE FOR EACH ITERATION (1 INDICATES THE FIRST INNER ITERATION):

    HEAD CHANGE    HEAD CHANGE    HEAD CHANGE    HEAD CHANGE    HEAD CHANGE 
   LAYER,ROW,COL  LAYER,ROW,COL  LAYER,ROW,COL  LAYER,ROW,COL  LAYER,ROW,COL
 ---------------------------------------------------------------------------
  1  0.8055E-03  0  0.2452E-03  0  0.1324E-03  0  0.7488E-04  0  0.5225E-04
   ( 50,  1, 45)  ( 48,  1, 53)  ( 46,  1, 58)  ( 43,  1, 63)  ( 39,  1, 66)
  0  0.2968E-04  0 -0.1808E-04  0 -0.1042E-04  0 -0.6698E-05  0 -0.4659E-05
   ( 50,  1, 64)  (  1,  1, 70)  (  1,  1, 75)  (  1,  1, 50)  (  1,  1, 54)
  0 -0.4092E-05  0 -0.2906E-05  0 -0.1921E-05  0 -0.1310E-05  0 -0.1105E-05
   (  2,  1, 42)  (  3,  1, 34)  (  6,  1, 31)  (  4,  1,  7)  (  3,  1, 12)
  0 -0.1233E-05  0 -0.1368E-05  0 -0.1219E-05  0 -0.8840E-06  1 -0.2346E-06
   (  1,  1,  6)  (  7,  1,  1)  (  2,  1,  3)  ( 49,  1, 12)  ( 43,  1,  2)

 MAXIMUM RESIDUAL FOR EACH ITERATION (1 INDICATES THE FIRST INNER ITERATION):

    RESIDUAL       RESIDUAL       RESIDUAL       RESIDUAL       RESIDUAL    
   LAYER,ROW,COL  LAYER,ROW,COL  LAYER,ROW,COL  LAYER,ROW,COL  LAYER,ROW,COL
 ---------------------------------------------------------------------------
  1   5.912      0   3.755      0  -1.771      0  -1.063      0 -0.8370    
   ( 50,  1, 46)  ( 50,  1, 39)  ( 49,  1, 39)  ( 50,  1, 59)  ( 50,  1, 37)
  0 -0.4556      0 -0.3228      0  0.1664      0  0.9789E-01  0  0.7304E-01
   ( 49,  1, 47)  ( 49,  1, 44)  ( 50,  1, 37)  ( 49,  1, 48)  ( 49,  1, 43)
  0 -0.3903E-01  0 -0.3792E-01  0 -0.2864E-01  0  0.2361E-01  0  0.1909E-01
   ( 49,  1, 55)  ( 49,  1, 47)  ( 43,  1,  2)  ( 41,  1,  2)  ( 44,  1,  2)
  0  0.2163E-01  0 -0.2004E-01  0  0.1646E-01  0  0.1492E-01  1 -0.8308E-02
   (  1,  1, 99)  (  2,  1, 99)  ( 40,  1, 99)  ( 36,  1, 99)  (  1,  1, 99)


 FLOW MODEL IS TRANSIENT
 FLOW MODEL CONTAINS CONSTANT-HEAD CELLS


 MAXIMUM STEPSIZE DURING WHICH ANY PARTICLE CANNOT MOVE MORE THAN ONE CELL
 =  9.687    (WHEN MIN. R.F.=1)  AT K=   1, I=   1, J=  99

 MAXIMUM STEPSIZE WHICH MEETS STABILITY CRITERION OF THE ADVECTION TERM
 (FOR PURE FINITE-DIFFERENCE OPTION, MIXELM=0) 
 =  9.443    (WHEN MIN. R.F.=1)  AT K=   1, I=   1, J=  99


 TOTAL NUMBER OF POINT SOURCES/SINKS PRESENT IN THE FLOW MODEL =       100

 MAXIMUM STEPSIZE WHICH MEETS STABILITY CRITERION OF THE SINK & SOURCE TERM
 =  122.8    (WHEN MIN. R.F.=1)  AT K=   1, I=   1, J=   1

 MAXIMUM STEPSIZE WHICH MEETS STABILITY CRITERION OF THE DISPERSION TERM
 =  2.157    (WHEN MIN. R.F.=1)  AT K=   1, I=   1, J=  99
     5 CALLS TO GCG PACKAGE FOR TRANSPORT TIME STEP   9 IN FLOW TIME STEP   1 STRESS PERIOD   7
    15 TOTAL ITERATIONS
 
 SOLVING FOR HEAD 


     2 CALLS TO PCG ROUTINE FOR TIME STEP   1 IN STRESS PERIOD    7
    20 TOTAL ITERATIONS

 MAXIMUM HEAD CHANGE FOR EACH ITERATION (1 INDICATES THE FIRST INNER ITERATION):

    HEAD CHANGE    HEAD CHANGE    HEAD CHANGE    HEAD CHANGE    HEAD CHANGE 
   LAYER,ROW,COL  LAYER,ROW,COL  LAYER,ROW,COL  LAYER,ROW,COL  LAYER,ROW,COL
 ---------------------------------------------------------------------------
  1  0.8028E-03  0  0.2443E-03  0  0.1320E-03  0  0.7477E-04  0  0.5218E-04
   ( 50,  1, 45)  ( 48,  1, 53)  ( 46,  1, 58)  ( 43,  1, 63)  ( 39,  1, 66)
  0  0.2955E-04  0 -0.1801E-04  0 -0.1038E-04  0 -0.6707E-05  0 -0.4674E-05
   ( 50,  1, 63)  (  1,  1, 70)  (  1,  1, 75)  (  1,  1, 50)  (  1,  1, 54)
  0 -0.4106E-05  0 -0.2932E-05  0 -0.1956E-05  0 -0.1354E-05  0 -0.1153E-05
   (  2,  1, 42)  (  3,  1, 34)  (  6,  1, 31)  (  4,  1,  7)  (  3,  1, 12)
  0 -0.1293E-05  0 -0.1434E-05  0 -0.1261E-05  0 -0.9366E-06  1 -0.2397E-06
   (  1,  1,  6)  (  7,  1,  1)  (  2,  1,  3)  ( 49,  1, 12)  ( 43,  1,  2)

 MAXIMUM RESIDUAL FOR EACH ITERATION (1 INDICATES THE FIRST INNER ITERATION):

    RESIDUAL       RESIDUAL       RESIDUAL       RESIDUAL       RESIDUAL    
   LAYER,ROW,COL  LAYER,ROW,COL  LAYER,ROW,COL  LAYER,ROW,COL  LAYER,ROW,COL
 ---------------------------------------------------------------------------
  1   5.903      0   3.758      0  -1.750      0  -1.060      0 -0.8350    
   ( 50,  1, 46)  ( 50,  1, 39)  ( 49,  1, 39)  ( 50,  1, 59)  ( 50,  1, 37)
  0 -0.4558      0 -0.3210      0  0.1663      0  0.9773E-01  0  0.7325E-01
   ( 49,  1, 47)  ( 49,  1, 44)  ( 50,  1, 37)  ( 49,  1, 48)  ( 49,  1, 43)
  0 -0.3911E-01  0 -0.3821E-01  0 -0.2904E-01  0  0.2436E-01  0  0.1989E-01
   ( 49,  1, 55)  ( 49,  1, 47)  ( 43,  1,  2)  ( 41,  1,  2)  ( 44,  1,  2)
  0  0.2257E-01  0 -0.2094E-01  0  0.1712E-01  0  0.1536E-01  1 -0.8606E-02
   (  1,  1, 99)  (  2,  1, 99)  ( 40,  1, 99)  ( 36,  1, 99)  (  1,  1, 99)


 FLOW MODEL IS TRANSIENT
 FLOW MODEL CONTAINS CONSTANT-HEAD CELLS


 MAXIMUM STEPSIZE DURING WHICH ANY PARTICLE CANNOT MOVE MORE THAN ONE CELL
 =  9.691    (WHEN MIN. R.F.=1)  AT K=   1, I=   1, J=  99

 MAXIMUM STEPSIZE WHICH MEETS STABILITY CRITERION OF THE ADVECTION TERM
 (FOR PURE FINITE-DIFFERENCE OPTION, MIXELM=0) 
 =  9.446    (WHEN MIN. R.F.=1)  AT K=   1, I=   1, J=  99


 TOTAL NUMBER OF POINT SOURCES/SINKS PRESENT IN THE FLOW MODEL =       100

 MAXIMUM STEPSIZE WHICH MEETS STABILITY CRITERION OF THE SINK & SOURCE TERM
 =  122.8    (WHEN MIN. R.F.=1)  AT K=   1, I=   1, J=   1

 MAXIMUM STEPSIZE WHICH MEETS STABILITY CRITERION OF THE DISPERSION TERM
 =  2.158    (WHEN MIN. R.F.=1)  AT K=   1, I=   1, J=  99
     5 CALLS TO GCG PACKAGE FOR TRANSPORT TIME STEP  10 IN FLOW TIME STEP   1 STRESS PERIOD   7
    15 TOTAL ITERATIONS
 
 SOLVING FOR HEAD 


     2 CALLS TO PCG ROUTINE FOR TIME STEP   1 IN STRESS PERIOD    7
    20 TOTAL ITERATIONS

 MAXIMUM HEAD CHANGE FOR EACH ITERATION (1 INDICATES THE FIRST INNER ITERATION):

    HEAD CHANGE    HEAD CHANGE    HEAD CHANGE    HEAD CHANGE    HEAD CHANGE 
   LAYER,ROW,COL  LAYER,ROW,COL  LAYER,ROW,COL  LAYER,ROW,COL  LAYER,ROW,COL
 ---------------------------------------------------------------------------
  1  0.7999E-03  0  0.2432E-03  0  0.1316E-03  0  0.7452E-04  0  0.5203E-04
   ( 50,  1, 45)  ( 48,  1, 53)  ( 46,  1, 58)  ( 43,  1, 63)  ( 39,  1, 66)
  0  0.2949E-04  0 -0.1801E-04  0 -0.1037E-04  0 -0.6625E-05  0 -0.4628E-05
   ( 50,  1, 63)  (  1,  1, 70)  (  1,  1, 75)  (  1,  1, 50)  (  1,  1, 54)
  0 -0.4046E-05  0 -0.2852E-05  0 -0.1882E-05  0 -0.1278E-05  0 -0.1062E-05
   (  2,  1, 42)  (  3,  1, 34)  (  6,  1, 31)  (  4,  1,  7)  (  3,  1, 12)
  0 -0.1165E-05  0 -0.1297E-05  0 -0.1171E-05  0 -0.8416E-06  1 -0.2250E-06
   (  1,  1,  6)  (  7,  1,  1)  (  2,  1,  3)  (  1,  1,  7)  ( 44,  1,  2)

 MAXIMUM RESIDUAL FOR EACH ITERATION (1 INDICATES THE FIRST INNER ITERATION):

    RESIDUAL       RESIDUAL       RESIDUAL       RESIDUAL       RESIDUAL    
   LAYER,ROW,COL  LAYER,ROW,COL  LAYER,ROW,COL  LAYER,ROW,COL  LAYER,ROW,COL
 ---------------------------------------------------------------------------
  1   5.894      0   3.755      0  -1.727      0  -1.057      0 -0.8329    
   ( 50,  1, 46)  ( 50,  1, 39)  ( 49,  1, 39)  ( 50,  1, 58)  ( 50,  1, 37)
  0 -0.4565      0 -0.3199      0  0.1660      0  0.9720E-01  0  0.7286E-01
   ( 49,  1, 47)  ( 49,  1, 44)  ( 50,  1, 37)  ( 49,  1, 48)  ( 49,  1, 43)
  0 -0.3862E-01  0 -0.3760E-01  0 -0.2847E-01  0  0.2329E-01  0  0.1841E-01
   ( 49,  1, 55)  ( 49,  1, 47)  ( 43,  1,  2)  ( 41,  1,  2)  ( 44,  1,  2)
  0  0.2069E-01  0 -0.1895E-01  0  0.1555E-01  0  0.1425E-01  1 -0.7957E-02
   (  1,  1, 99)  (  2,  1, 99)  ( 40,  1, 99)  ( 36,  1, 99)  (  1,  1, 99)


 FLOW MODEL IS TRANSIENT
 FLOW MODEL CONTAINS CONSTANT-HEAD CELLS


 MAXIMUM STEPSIZE DURING WHICH ANY PARTICLE CANNOT MOVE MORE THAN ONE CELL
 =  9.694    (WHEN MIN. R.F.=1)  AT K=   1, I=   1, J=  99

 MAXIMUM STEPSIZE WHICH MEETS STABILITY CRITERION OF THE ADVECTION TERM
 (FOR PURE FINITE-DIFFERENCE OPTION, MIXELM=0) 
 =  9.449    (WHEN MIN. R.F.=1)  AT K=   1, I=   1, J=  99


 TOTAL NUMBER OF POINT SOURCES/SINKS PRESENT IN THE FLOW MODEL =       100

 MAXIMUM STEPSIZE WHICH MEETS STABILITY CRITERION OF THE SINK & SOURCE TERM
 =  122.8    (WHEN MIN. R.F.=1)  AT K=   1, I=   1, J=   1

 MAXIMUM STEPSIZE WHICH MEETS STABILITY CRITERION OF THE DISPERSION TERM
 =  2.158    (WHEN MIN. R.F.=1)  AT K=   1, I=   1, J=  99
     5 CALLS TO GCG PACKAGE FOR TRANSPORT TIME STEP  11 IN FLOW TIME STEP   1 STRESS PERIOD   7
    15 TOTAL ITERATIONS
 
 SOLVING FOR HEAD 


     2 CALLS TO PCG ROUTINE FOR TIME STEP   1 IN STRESS PERIOD    7
    20 TOTAL ITERATIONS

 MAXIMUM HEAD CHANGE FOR EACH ITERATION (1 INDICATES THE FIRST INNER ITERATION):

    HEAD CHANGE    HEAD CHANGE    HEAD CHANGE    HEAD CHANGE    HEAD CHANGE 
   LAYER,ROW,COL  LAYER,ROW,COL  LAYER,ROW,COL  LAYER,ROW,COL  LAYER,ROW,COL
 ---------------------------------------------------------------------------
  1  0.7982E-03  0  0.2423E-03  0  0.1313E-03  0  0.7446E-04  0  0.5201E-04
   ( 50,  1, 44)  ( 48,  1, 52)  ( 46,  1, 58)  ( 43,  1, 63)  ( 39,  1, 66)
  0  0.2942E-04  0 -0.1785E-04  0 -0.1028E-04  0 -0.6615E-05  0 -0.4632E-05
   ( 50,  1, 63)  (  1,  1, 70)  (  1,  1, 75)  (  1,  1, 50)  (  1,  1, 54)
  0 -0.4009E-05  0 -0.2831E-05  0 -0.1873E-05  0 -0.1272E-05  0 -0.1051E-05
   (  2,  1, 42)  (  3,  1, 33)  (  6,  1, 30)  (  4,  1,  7)  (  3,  1, 12)
  0 -0.1143E-05  0 -0.1274E-05  0 -0.1154E-05  0 -0.8365E-06  1 -0.2218E-06
   (  1,  1,  6)  (  7,  1,  1)  (  2,  1,  3)  (  1,  1,  7)  ( 44,  1,  2)

 MAXIMUM RESIDUAL FOR EACH ITERATION (1 INDICATES THE FIRST INNER ITERATION):

    RESIDUAL       RESIDUAL       RESIDUAL       RESIDUAL       RESIDUAL    
   LAYER,ROW,COL  LAYER,ROW,COL  LAYER,ROW,COL  LAYER,ROW,COL  LAYER,ROW,COL
 ---------------------------------------------------------------------------
  1   5.882      0   3.752      0  -1.733      0  -1.056      0 -0.8311    
   ( 50,  1, 46)  ( 50,  1, 39)  ( 49,  1, 38)  ( 50,  1, 58)  ( 50,  1, 36)
  0 -0.4566      0 -0.3186      0  0.1652      0  0.9692E-01  0  0.7245E-01
   ( 49,  1, 47)  ( 49,  1, 43)  ( 50,  1, 37)  ( 49,  1, 48)  ( 49,  1, 43)
  0 -0.3849E-01  0 -0.3750E-01  0 -0.2844E-01  0  0.2323E-01  0  0.1819E-01
   ( 49,  1, 55)  ( 49,  1, 47)  ( 43,  1,  2)  ( 41,  1,  2)  ( 44,  1,  2)
  0  0.2035E-01  0 -0.1853E-01  0  0.1522E-01  0  0.1398E-01  1 -0.7813E-02
   (  1,  1, 99)  (  2,  1, 99)  ( 40,  1, 99)  ( 36,  1, 99)  (  1,  1, 99)


 FLOW MODEL IS TRANSIENT
 FLOW MODEL CONTAINS CONSTANT-HEAD CELLS


 MAXIMUM STEPSIZE DURING WHICH ANY PARTICLE CANNOT MOVE MORE THAN ONE CELL
 =  9.697    (WHEN MIN. R.F.=1)  AT K=   1, I=   1, J=  99

 MAXIMUM STEPSIZE WHICH MEETS STABILITY CRITERION OF THE ADVECTION TERM
 (FOR PURE FINITE-DIFFERENCE OPTION, MIXELM=0) 
 =  9.452    (WHEN MIN. R.F.=1)  AT K=   1, I=   1, J=  99


 TOTAL NUMBER OF POINT SOURCES/SINKS PRESENT IN THE FLOW MODEL =       100

 MAXIMUM STEPSIZE WHICH MEETS STABILITY CRITERION OF THE SINK & SOURCE TERM
 =  122.8    (WHEN MIN. R.F.=1)  AT K=   1, I=   1, J=   1

 MAXIMUM STEPSIZE WHICH MEETS STABILITY CRITERION OF THE DISPERSION TERM
 =  2.159    (WHEN MIN. R.F.=1)  AT K=   1, I=   1, J=  99
     5 CALLS TO GCG PACKAGE FOR TRANSPORT TIME STEP  12 IN FLOW TIME STEP   1 STRESS PERIOD   7
    15 TOTAL ITERATIONS
 
 SOLVING FOR HEAD 


     2 CALLS TO PCG ROUTINE FOR TIME STEP   1 IN STRESS PERIOD    7
    20 TOTAL ITERATIONS

 MAXIMUM HEAD CHANGE FOR EACH ITERATION (1 INDICATES THE FIRST INNER ITERATION):

    HEAD CHANGE    HEAD CHANGE    HEAD CHANGE    HEAD CHANGE    HEAD CHANGE 
   LAYER,ROW,COL  LAYER,ROW,COL  LAYER,ROW,COL  LAYER,ROW,COL  LAYER,ROW,COL
 ---------------------------------------------------------------------------
  1  0.7964E-03  0  0.2415E-03  0  0.1308E-03  0  0.7412E-04  0  0.5182E-04
   ( 50,  1, 44)  ( 48,  1, 52)  ( 46,  1, 58)  ( 43,  1, 63)  ( 39,  1, 66)
  0  0.2936E-04  0 -0.1789E-04  0 -0.1030E-04  0 -0.6598E-05  0 -0.4651E-05
   ( 50,  1, 63)  (  1,  1, 70)  (  1,  1, 75)  (  1,  1, 50)  (  1,  1, 54)
  0 -0.4065E-05  0 -0.2900E-05  0 -0.1945E-05  0 -0.1352E-05  0 -0.1141E-05
   (  2,  1, 42)  (  3,  1, 33)  (  6,  1, 30)  (  4,  1,  7)  (  3,  1, 12)
  0 -0.1264E-05  0 -0.1405E-05  0 -0.1239E-05  0 -0.9213E-06  1 -0.2331E-06
   (  1,  1,  6)  (  7,  1,  1)  (  2,  1,  3)  ( 49,  1, 12)  ( 44,  1,  2)

 MAXIMUM RESIDUAL FOR EACH ITERATION (1 INDICATES THE FIRST INNER ITERATION):

    RESIDUAL       RESIDUAL       RESIDUAL       RESIDUAL       RESIDUAL    
   LAYER,ROW,COL  LAYER,ROW,COL  LAYER,ROW,COL  LAYER,ROW,COL  LAYER,ROW,COL
 ---------------------------------------------------------------------------
  1   5.867      0   3.740      0  -1.754      0  -1.058      0 -0.8330    
   ( 50,  1, 46)  ( 50,  1, 39)  ( 49,  1, 38)  ( 50,  1, 58)  ( 50,  1, 36)
  0 -0.4557      0 -0.3201      0  0.1646      0  0.9701E-01  0  0.7280E-01
   ( 49,  1, 47)  ( 49,  1, 43)  ( 50,  1, 37)  ( 49,  1, 48)  ( 49,  1, 43)
  0 -0.3883E-01  0 -0.3802E-01  0 -0.2899E-01  0  0.2448E-01  0  0.1971E-01
   ( 49,  1, 55)  ( 49,  1, 47)  ( 43,  1,  2)  ( 41,  1,  2)  ( 44,  1,  2)
  0  0.2220E-01  0 -0.2035E-01  0  0.1657E-01  0  0.1499E-01  1 -0.8432E-02
   (  1,  1, 99)  (  2,  1, 99)  ( 40,  1, 99)  ( 36,  1, 99)  (  1,  1, 99)


 FLOW MODEL IS TRANSIENT
 FLOW MODEL CONTAINS CONSTANT-HEAD CELLS


 MAXIMUM STEPSIZE DURING WHICH ANY PARTICLE CANNOT MOVE MORE THAN ONE CELL
 =  9.700    (WHEN MIN. R.F.=1)  AT K=   1, I=   1, J=  99

 MAXIMUM STEPSIZE WHICH MEETS STABILITY CRITERION OF THE ADVECTION TERM
 (FOR PURE FINITE-DIFFERENCE OPTION, MIXELM=0) 
 =  9.455    (WHEN MIN. R.F.=1)  AT K=   1, I=   1, J=  99


 TOTAL NUMBER OF POINT SOURCES/SINKS PRESENT IN THE FLOW MODEL =       100

 MAXIMUM STEPSIZE WHICH MEETS STABILITY CRITERION OF THE SINK & SOURCE TERM
 =  122.8    (WHEN MIN. R.F.=1)  AT K=   1, I=   1, J=   1

 MAXIMUM STEPSIZE WHICH MEETS STABILITY CRITERION OF THE DISPERSION TERM
 =  2.160    (WHEN MIN. R.F.=1)  AT K=   1, I=   1, J=  99
     5 CALLS TO GCG PACKAGE FOR TRANSPORT TIME STEP  13 IN FLOW TIME STEP   1 STRESS PERIOD   7
    15 TOTAL ITERATIONS
 
 SOLVING FOR HEAD 


     2 CALLS TO PCG ROUTINE FOR TIME STEP   1 IN STRESS PERIOD    7
    20 TOTAL ITERATIONS

 MAXIMUM HEAD CHANGE FOR EACH ITERATION (1 INDICATES THE FIRST INNER ITERATION):

    HEAD CHANGE    HEAD CHANGE    HEAD CHANGE    HEAD CHANGE    HEAD CHANGE 
   LAYER,ROW,COL  LAYER,ROW,COL  LAYER,ROW,COL  LAYER,ROW,COL  LAYER,ROW,COL
 ---------------------------------------------------------------------------
  1  0.7944E-03  0  0.2407E-03  0  0.1305E-03  0  0.7395E-04  0  0.5168E-04
   ( 50,  1, 44)  ( 48,  1, 52)  ( 46,  1, 58)  ( 43,  1, 63)  ( 39,  1, 66)
  0  0.2925E-04  0 -0.1786E-04  0 -0.1029E-04  0 -0.6583E-05  0 -0.4637E-05
   ( 50,  1, 63)  (  1,  1, 70)  (  1,  1, 75)  (  1,  1, 50)  (  1,  1, 54)
  0 -0.4055E-05  0 -0.2895E-05  0 -0.1946E-05  0 -0.1352E-05  0 -0.1143E-05
   (  2,  1, 42)  (  3,  1, 33)  (  6,  1, 30)  (  4,  1,  7)  (  3,  1, 12)
  0 -0.1263E-05  0 -0.1406E-05  0 -0.1240E-05  0 -0.9251E-06  1 -0.2334E-06
   (  1,  1,  6)  (  7,  1,  1)  (  2,  1,  3)  ( 49,  1, 12)  ( 44,  1, 12)

 MAXIMUM RESIDUAL FOR EACH ITERATION (1 INDICATES THE FIRST INNER ITERATION):

    RESIDUAL       RESIDUAL       RESIDUAL       RESIDUAL       RESIDUAL    
   LAYER,ROW,COL  LAYER,ROW,COL  LAYER,ROW,COL  LAYER,ROW,COL  LAYER,ROW,COL
 ---------------------------------------------------------------------------
  1   5.846      0   3.723      0  -1.765      0  -1.054      0 -0.8321    
   ( 50,  1, 46)  ( 50,  1, 39)  ( 49,  1, 38)  ( 50,  1, 58)  ( 50,  1, 36)
  0 -0.4555      0 -0.3199      0  0.1636      0  0.9678E-01  0  0.7257E-01
   ( 49,  1, 47)  ( 49,  1, 43)  ( 50,  1, 36)  ( 49,  1, 47)  ( 49,  1, 43)
  0 -0.3871E-01  0 -0.3791E-01  0 -0.2899E-01  0  0.2458E-01  0  0.1978E-01
   ( 49,  1, 55)  ( 49,  1, 47)  ( 43,  1,  2)  ( 41,  1,  2)  ( 44,  1,  2)
  0  0.2222E-01  0 -0.2029E-01  0  0.1653E-01  0  0.1496E-01  1 -0.8430E-02
   (  1,  1, 99)  (  2,  1, 99)  ( 40,  1, 99)  ( 36,  1, 99)  (  1,  1, 99)


 FLOW MODEL IS TRANSIENT
 FLOW MODEL CONTAINS CONSTANT-HEAD CELLS


 MAXIMUM STEPSIZE DURING WHICH ANY PARTICLE CANNOT MOVE MORE THAN ONE CELL
 =  9.703    (WHEN MIN. R.F.=1)  AT K=   1, I=   1, J=  99

 MAXIMUM STEPSIZE WHICH MEETS STABILITY CRITERION OF THE ADVECTION TERM
 (FOR PURE FINITE-DIFFERENCE OPTION, MIXELM=0) 
 =  9.458    (WHEN MIN. R.F.=1)  AT K=   1, I=   1, J=  99


 TOTAL NUMBER OF POINT SOURCES/SINKS PRESENT IN THE FLOW MODEL =       100

 MAXIMUM STEPSIZE WHICH MEETS STABILITY CRITERION OF THE SINK & SOURCE TERM
 =  122.8    (WHEN MIN. R.F.=1)  AT K=   1, I=   1, J=   1

 MAXIMUM STEPSIZE WHICH MEETS STABILITY CRITERION OF THE DISPERSION TERM
 =  2.160    (WHEN MIN. R.F.=1)  AT K=   1, I=   1, J=  99
     5 CALLS TO GCG PACKAGE FOR TRANSPORT TIME STEP  14 IN FLOW TIME STEP   1 STRESS PERIOD   7
    15 TOTAL ITERATIONS
 
 SOLVING FOR HEAD 


     2 CALLS TO PCG ROUTINE FOR TIME STEP   1 IN STRESS PERIOD    7
    16 TOTAL ITERATIONS

 MAXIMUM HEAD CHANGE FOR EACH ITERATION (1 INDICATES THE FIRST INNER ITERATION):

    HEAD CHANGE    HEAD CHANGE    HEAD CHANGE    HEAD CHANGE    HEAD CHANGE 
   LAYER,ROW,COL  LAYER,ROW,COL  LAYER,ROW,COL  LAYER,ROW,COL  LAYER,ROW,COL
 ---------------------------------------------------------------------------
  1  0.7923E-03  0  0.2398E-03  0  0.1300E-03  0  0.7368E-04  0  0.5154E-04
   ( 50,  1, 44)  ( 48,  1, 52)  ( 46,  1, 58)  ( 43,  1, 63)  ( 39,  1, 65)
  0  0.2923E-04  0 -0.1776E-04  0 -0.1020E-04  0 -0.6473E-05  0 -0.4564E-05
   ( 50,  1, 63)  (  1,  1, 70)  (  1,  1, 74)  (  1,  1, 50)  (  1,  1, 54)
  0 -0.3920E-05  0 -0.2748E-05  0 -0.1805E-05  0 -0.1201E-05  0 -0.9678E-06
   (  2,  1, 42)  (  3,  1, 33)  (  6,  1, 30)  (  4,  1,  7)  (  3,  1, 12)
  1 -0.2707E-06
   ( 11,  1, 14)

 MAXIMUM RESIDUAL FOR EACH ITERATION (1 INDICATES THE FIRST INNER ITERATION):

    RESIDUAL       RESIDUAL       RESIDUAL       RESIDUAL       RESIDUAL    
   LAYER,ROW,COL  LAYER,ROW,COL  LAYER,ROW,COL  LAYER,ROW,COL  LAYER,ROW,COL
 ---------------------------------------------------------------------------
  1   5.827      0   3.700      0  -1.773      0  -1.054      0 -0.8316    
   ( 50,  1, 46)  ( 50,  1, 39)  ( 49,  1, 38)  ( 50,  1, 58)  ( 50,  1, 36)
  0 -0.4539      0 -0.3192      0  0.1641      0  0.9630E-01  0  0.7161E-01
   ( 49,  1, 47)  ( 49,  1, 43)  ( 50,  1, 36)  ( 49,  1, 47)  ( 49,  1, 43)
  0 -0.3840E-01  0 -0.3676E-01  0 -0.2793E-01  0  0.2246E-01  0  0.1684E-01
   ( 38,  1,  2)  ( 49,  1, 47)  ( 43,  1,  2)  ( 41,  1,  2)  ( 44,  1,  2)
  1  0.6828E-02
   (  1,  1, 99)


 FLOW MODEL IS TRANSIENT
 FLOW MODEL CONTAINS CONSTANT-HEAD CELLS


 MAXIMUM STEPSIZE DURING WHICH ANY PARTICLE CANNOT MOVE MORE THAN ONE CELL
 =  9.706    (WHEN MIN. R.F.=1)  AT K=   1, I=   1, J=  99

 MAXIMUM STEPSIZE WHICH MEETS STABILITY CRITERION OF THE ADVECTION TERM
 (FOR PURE FINITE-DIFFERENCE OPTION, MIXELM=0) 
 =  9.461    (WHEN MIN. R.F.=1)  AT K=   1, I=   1, J=  99


 TOTAL NUMBER OF POINT SOURCES/SINKS PRESENT IN THE FLOW MODEL =       100

 MAXIMUM STEPSIZE WHICH MEETS STABILITY CRITERION OF THE SINK & SOURCE TERM
 =  122.8    (WHEN MIN. R.F.=1)  AT K=   1, I=   1, J=   1

 MAXIMUM STEPSIZE WHICH MEETS STABILITY CRITERION OF THE DISPERSION TERM
 =  2.161    (WHEN MIN. R.F.=1)  AT K=   1, I=   1, J=  99
     5 CALLS TO GCG PACKAGE FOR TRANSPORT TIME STEP  15 IN FLOW TIME STEP   1 STRESS PERIOD   7
    15 TOTAL ITERATIONS
 
 SOLVING FOR HEAD 


     2 CALLS TO PCG ROUTINE FOR TIME STEP   1 IN STRESS PERIOD    7
    20 TOTAL ITERATIONS

 MAXIMUM HEAD CHANGE FOR EACH ITERATION (1 INDICATES THE FIRST INNER ITERATION):

    HEAD CHANGE    HEAD CHANGE    HEAD CHANGE    HEAD CHANGE    HEAD CHANGE 
   LAYER,ROW,COL  LAYER,ROW,COL  LAYER,ROW,COL  LAYER,ROW,COL  LAYER,ROW,COL
 ---------------------------------------------------------------------------
  1  0.7901E-03  0  0.2390E-03  0  0.1298E-03  0  0.7368E-04  0  0.5170E-04
   ( 50,  1, 44)  ( 48,  1, 52)  ( 46,  1, 58)  ( 43,  1, 63)  ( 39,  1, 65)
  0  0.2910E-04  0 -0.1760E-04  0 -0.1013E-04  0 -0.6338E-05  0 -0.4636E-05
   ( 50,  1, 63)  (  1,  1, 70)  (  1,  1, 69)  (  1,  1, 49)  (  1,  1, 53)
  0 -0.3992E-05  0 -0.2827E-05  0 -0.1854E-05  0 -0.1229E-05  0 -0.1025E-05
   (  2,  1, 41)  (  3,  1, 33)  (  6,  1, 30)  (  4,  1,  6)  (  3,  1, 11)
  0 -0.1087E-05  0 -0.1205E-05  0 -0.1100E-05  0 -0.8147E-06  1 -0.2119E-06
   (  1,  1,  6)  (  7,  1,  1)  (  2,  1,  3)  (  1,  1,  7)  ( 44,  1,  2)

 MAXIMUM RESIDUAL FOR EACH ITERATION (1 INDICATES THE FIRST INNER ITERATION):

    RESIDUAL       RESIDUAL       RESIDUAL       RESIDUAL       RESIDUAL    
   LAYER,ROW,COL  LAYER,ROW,COL  LAYER,ROW,COL  LAYER,ROW,COL  LAYER,ROW,COL
 ---------------------------------------------------------------------------
  1   5.809      0   3.674      0  -1.773      0  -1.050      0 -0.8313    
   ( 50,  1, 46)  ( 50,  1, 39)  ( 49,  1, 38)  ( 50,  1, 58)  ( 50,  1, 36)
  0 -0.4526      0 -0.3191      0  0.1671      0  0.9666E-01  0  0.7225E-01
   ( 49,  1, 47)  ( 49,  1, 43)  ( 50,  1, 36)  ( 49,  1, 47)  ( 49,  1, 43)
  0 -0.3945E-01  0 -0.3736E-01  0 -0.2851E-01  0  0.2322E-01  0  0.1761E-01
   ( 38,  1,  2)  ( 49,  1, 46)  ( 43,  1,  2)  ( 41,  1,  2)  ( 44,  1,  2)
  0  0.1962E-01  0 -0.1752E-01  0  0.1434E-01  0  0.1330E-01  1 -0.7471E-02
   (  1,  1, 99)  (  2,  1, 99)  ( 40,  1, 99)  ( 37,  1, 99)  (  1,  1, 99)


 FLOW MODEL IS TRANSIENT
 FLOW MODEL CONTAINS CONSTANT-HEAD CELLS


 MAXIMUM STEPSIZE DURING WHICH ANY PARTICLE CANNOT MOVE MORE THAN ONE CELL
 =  9.709    (WHEN MIN. R.F.=1)  AT K=   1, I=   1, J=  99

 MAXIMUM STEPSIZE WHICH MEETS STABILITY CRITERION OF THE ADVECTION TERM
 (FOR PURE FINITE-DIFFERENCE OPTION, MIXELM=0) 
 =  9.464    (WHEN MIN. R.F.=1)  AT K=   1, I=   1, J=  99


 TOTAL NUMBER OF POINT SOURCES/SINKS PRESENT IN THE FLOW MODEL =       100

 MAXIMUM STEPSIZE WHICH MEETS STABILITY CRITERION OF THE SINK & SOURCE TERM
 =  122.8    (WHEN MIN. R.F.=1)  AT K=   1, I=   1, J=   1

 MAXIMUM STEPSIZE WHICH MEETS STABILITY CRITERION OF THE DISPERSION TERM
 =  2.162    (WHEN MIN. R.F.=1)  AT K=   1, I=   1, J=  99
     5 CALLS TO GCG PACKAGE FOR TRANSPORT TIME STEP  16 IN FLOW TIME STEP   1 STRESS PERIOD   7
    15 TOTAL ITERATIONS
 
 SOLVING FOR HEAD 


     2 CALLS TO PCG ROUTINE FOR TIME STEP   1 IN STRESS PERIOD    7
    20 TOTAL ITERATIONS

 MAXIMUM HEAD CHANGE FOR EACH ITERATION (1 INDICATES THE FIRST INNER ITERATION):

    HEAD CHANGE    HEAD CHANGE    HEAD CHANGE    HEAD CHANGE    HEAD CHANGE 
   LAYER,ROW,COL  LAYER,ROW,COL  LAYER,ROW,COL  LAYER,ROW,COL  LAYER,ROW,COL
 ---------------------------------------------------------------------------
  1  0.7877E-03  0  0.2381E-03  0  0.1292E-03  0  0.7335E-04  0  0.5144E-04
   ( 50,  1, 44)  ( 48,  1, 52)  ( 46,  1, 58)  ( 43,  1, 63)  ( 39,  1, 65)
  0  0.2898E-04  0 -0.1762E-04  0 -0.1017E-04  0 -0.6485E-05  0 -0.4590E-05
   ( 50,  1, 63)  (  1,  1, 70)  (  1,  1, 73)  (  1,  1, 49)  (  1,  1, 54)
  0 -0.3968E-05  0 -0.2816E-05  0 -0.1882E-05  0 -0.1292E-05  0 -0.1065E-05
   (  2,  1, 41)  (  3,  1, 33)  (  6,  1, 30)  (  4,  1,  6)  (  3,  1, 12)
  0 -0.1145E-05  0 -0.1277E-05  0 -0.1156E-05  0 -0.8315E-06  1 -0.2206E-06
   (  1,  1,  6)  (  7,  1,  1)  (  2,  1,  4)  ( 49,  1, 12)  ( 44,  1, 12)

 MAXIMUM RESIDUAL FOR EACH ITERATION (1 INDICATES THE FIRST INNER ITERATION):

    RESIDUAL       RESIDUAL       RESIDUAL       RESIDUAL       RESIDUAL    
   LAYER,ROW,COL  LAYER,ROW,COL  LAYER,ROW,COL  LAYER,ROW,COL  LAYER,ROW,COL
 ---------------------------------------------------------------------------
  1   5.785      0   3.643      0  -1.769      0  -1.048      0 -0.8306    
   ( 50,  1, 46)  ( 50,  1, 39)  ( 49,  1, 38)  ( 50,  1, 58)  ( 50,  1, 36)
  0 -0.4516      0 -0.3189      0  0.1662      0  0.9660E-01  0  0.7133E-01
   ( 49,  1, 47)  ( 49,  1, 43)  ( 50,  1, 36)  ( 49,  1, 47)  ( 49,  1, 43)
  0 -0.3938E-01  0 -0.3740E-01  0 -0.2840E-01  0  0.2374E-01  0  0.1842E-01
   ( 38,  1,  2)  ( 49,  1, 46)  ( 43,  1,  2)  ( 41,  1,  2)  ( 44,  1,  2)
  0  0.2035E-01  0 -0.1821E-01  0  0.1504E-01  0  0.1379E-01  1 -0.7751E-02
   (  1,  1, 99)  (  2,  1, 99)  (  2,  1, 97)  ( 37,  1, 99)  (  1,  1, 99)


 FLOW MODEL IS TRANSIENT
 FLOW MODEL CONTAINS CONSTANT-HEAD CELLS


 MAXIMUM STEPSIZE DURING WHICH ANY PARTICLE CANNOT MOVE MORE THAN ONE CELL
 =  9.712    (WHEN MIN. R.F.=1)  AT K=   1, I=   1, J=  99

 MAXIMUM STEPSIZE WHICH MEETS STABILITY CRITERION OF THE ADVECTION TERM
 (FOR PURE FINITE-DIFFERENCE OPTION, MIXELM=0) 
 =  9.467    (WHEN MIN. R.F.=1)  AT K=   1, I=   1, J=  99


 TOTAL NUMBER OF POINT SOURCES/SINKS PRESENT IN THE FLOW MODEL =       100

 MAXIMUM STEPSIZE WHICH MEETS STABILITY CRITERION OF THE SINK & SOURCE TERM
 =  122.8    (WHEN MIN. R.F.=1)  AT K=   1, I=   1, J=   1

 MAXIMUM STEPSIZE WHICH MEETS STABILITY CRITERION OF THE DISPERSION TERM
 =  2.162    (WHEN MIN. R.F.=1)  AT K=   1, I=   1, J=  99
     5 CALLS TO GCG PACKAGE FOR TRANSPORT TIME STEP  17 IN FLOW TIME STEP   1 STRESS PERIOD   7
    15 TOTAL ITERATIONS
 
 SOLVING FOR HEAD 


     2 CALLS TO PCG ROUTINE FOR TIME STEP   1 IN STRESS PERIOD    7
    20 TOTAL ITERATIONS

 MAXIMUM HEAD CHANGE FOR EACH ITERATION (1 INDICATES THE FIRST INNER ITERATION):

    HEAD CHANGE    HEAD CHANGE    HEAD CHANGE    HEAD CHANGE    HEAD CHANGE 
   LAYER,ROW,COL  LAYER,ROW,COL  LAYER,ROW,COL  LAYER,ROW,COL  LAYER,ROW,COL
 ---------------------------------------------------------------------------
  1  0.7852E-03  0  0.2372E-03  0  0.1287E-03  0  0.7305E-04  0  0.5126E-04
   ( 50,  1, 44)  ( 48,  1, 52)  ( 46,  1, 57)  ( 43,  1, 62)  ( 39,  1, 65)
  0  0.2892E-04  0 -0.1765E-04  0 -0.1013E-04  0 -0.6405E-05  0 -0.4574E-05
   ( 50,  1, 62)  (  1,  1, 70)  (  2,  1, 67)  (  1,  1, 49)  (  1,  1, 53)
  0 -0.3929E-05  0 -0.2763E-05  0 -0.1842E-05  0 -0.1254E-05  0 -0.1020E-05
   (  2,  1, 41)  (  3,  1, 33)  (  6,  1, 30)  (  4,  1,  6)  (  3,  1, 11)
  0 -0.1082E-05  0 -0.1204E-05  0 -0.1105E-05  0 -0.8101E-06  1 -0.2113E-06
   (  1,  1,  6)  (  7,  1,  1)  (  2,  1,  4)  (  1,  1,  7)  ( 44,  1, 12)

 MAXIMUM RESIDUAL FOR EACH ITERATION (1 INDICATES THE FIRST INNER ITERATION):

    RESIDUAL       RESIDUAL       RESIDUAL       RESIDUAL       RESIDUAL    
   LAYER,ROW,COL  LAYER,ROW,COL  LAYER,ROW,COL  LAYER,ROW,COL  LAYER,ROW,COL
 ---------------------------------------------------------------------------
  1   5.773      0   3.650      0  -1.757      0  -1.046      0 -0.8279    
   ( 50,  1, 45)  ( 50,  1, 38)  ( 49,  1, 38)  ( 50,  1, 58)  ( 50,  1, 36)
  0 -0.4493      0 -0.3181      0  0.1667      0  0.9608E-01  0  0.7107E-01
   ( 49,  1, 47)  ( 49,  1, 43)  ( 50,  1, 36)  ( 49,  1, 47)  ( 49,  1, 42)
  0 -0.3954E-01  0 -0.3714E-01  0 -0.2813E-01  0  0.2328E-01  0  0.1767E-01
   ( 38,  1,  2)  ( 49,  1, 46)  ( 43,  1,  2)  ( 41,  1,  2)  ( 44,  1,  2)
  0  0.1936E-01  0 -0.1717E-01  0  0.1429E-01  0  0.1323E-01  1 -0.7395E-02
   (  1,  1, 99)  (  2,  1, 99)  (  2,  1, 97)  ( 37,  1, 99)  (  1,  1, 99)


 FLOW MODEL IS TRANSIENT
 FLOW MODEL CONTAINS CONSTANT-HEAD CELLS


 MAXIMUM STEPSIZE DURING WHICH ANY PARTICLE CANNOT MOVE MORE THAN ONE CELL
 =  9.715    (WHEN MIN. R.F.=1)  AT K=   1, I=   1, J=  99

 MAXIMUM STEPSIZE WHICH MEETS STABILITY CRITERION OF THE ADVECTION TERM
 (FOR PURE FINITE-DIFFERENCE OPTION, MIXELM=0) 
 =  9.470    (WHEN MIN. R.F.=1)  AT K=   1, I=   1, J=  99


 TOTAL NUMBER OF POINT SOURCES/SINKS PRESENT IN THE FLOW MODEL =       100

 MAXIMUM STEPSIZE WHICH MEETS STABILITY CRITERION OF THE SINK & SOURCE TERM
 =  122.8    (WHEN MIN. R.F.=1)  AT K=   1, I=   1, J=   1

 MAXIMUM STEPSIZE WHICH MEETS STABILITY CRITERION OF THE DISPERSION TERM
 =  2.163    (WHEN MIN. R.F.=1)  AT K=   1, I=   1, J=  99
     5 CALLS TO GCG PACKAGE FOR TRANSPORT TIME STEP  18 IN FLOW TIME STEP   1 STRESS PERIOD   7
    15 TOTAL ITERATIONS
 
 SOLVING FOR HEAD 


     2 CALLS TO PCG ROUTINE FOR TIME STEP   1 IN STRESS PERIOD    7
    16 TOTAL ITERATIONS

 MAXIMUM HEAD CHANGE FOR EACH ITERATION (1 INDICATES THE FIRST INNER ITERATION):

    HEAD CHANGE    HEAD CHANGE    HEAD CHANGE    HEAD CHANGE    HEAD CHANGE 
   LAYER,ROW,COL  LAYER,ROW,COL  LAYER,ROW,COL  LAYER,ROW,COL  LAYER,ROW,COL
 ---------------------------------------------------------------------------
  1  0.7824E-03  0  0.2361E-03  0  0.1283E-03  0  0.7290E-04  0  0.5120E-04
   ( 50,  1, 44)  ( 48,  1, 52)  ( 46,  1, 57)  ( 43,  1, 62)  ( 39,  1, 65)
  0  0.2887E-04  0 -0.1754E-04  0 -0.1009E-04  0 -0.6346E-05  0 -0.4525E-05
   ( 50,  1, 62)  (  1,  1, 70)  (  1,  1, 74)  (  1,  1, 49)  (  1,  1, 53)
  0 -0.3870E-05  0 -0.2690E-05  0 -0.1776E-05  0 -0.1187E-05  0 -0.9412E-06
   (  2,  1, 41)  (  3,  1, 33)  (  6,  1, 30)  (  4,  1,  6)  (  3,  1, 11)
  1 -0.2555E-06
   ( 35,  1,  3)

 MAXIMUM RESIDUAL FOR EACH ITERATION (1 INDICATES THE FIRST INNER ITERATION):

    RESIDUAL       RESIDUAL       RESIDUAL       RESIDUAL       RESIDUAL    
   LAYER,ROW,COL  LAYER,ROW,COL  LAYER,ROW,COL  LAYER,ROW,COL  LAYER,ROW,COL
 ---------------------------------------------------------------------------
  1   5.766      0   3.654      0  -1.743      0  -1.044      0 -0.8256    
   ( 50,  1, 45)  ( 50,  1, 38)  ( 49,  1, 38)  ( 50,  1, 58)  ( 50,  1, 36)
  0 -0.4496      0 -0.3172      0  0.1671      0  0.9580E-01  0  0.7072E-01
   ( 49,  1, 46)  ( 49,  1, 43)  ( 50,  1, 36)  ( 49,  1, 47)  ( 49,  1, 42)
  0 -0.3953E-01  0 -0.3666E-01  0 -0.2761E-01  0  0.2232E-01  0  0.1634E-01
   ( 38,  1,  2)  ( 49,  1, 46)  ( 43,  1,  2)  ( 41,  1,  2)  ( 44,  1,  2)
  1  0.6477E-02
   (  1,  1, 98)


 FLOW MODEL IS TRANSIENT
 FLOW MODEL CONTAINS CONSTANT-HEAD CELLS


 MAXIMUM STEPSIZE DURING WHICH ANY PARTICLE CANNOT MOVE MORE THAN ONE CELL
 =  9.718    (WHEN MIN. R.F.=1)  AT K=   1, I=   1, J=  99

 MAXIMUM STEPSIZE WHICH MEETS STABILITY CRITERION OF THE ADVECTION TERM
 (FOR PURE FINITE-DIFFERENCE OPTION, MIXELM=0) 
 =  9.473    (WHEN MIN. R.F.=1)  AT K=   1, I=   1, J=  99


 TOTAL NUMBER OF POINT SOURCES/SINKS PRESENT IN THE FLOW MODEL =       100

 MAXIMUM STEPSIZE WHICH MEETS STABILITY CRITERION OF THE SINK & SOURCE TERM
 =  122.8    (WHEN MIN. R.F.=1)  AT K=   1, I=   1, J=   1

 MAXIMUM STEPSIZE WHICH MEETS STABILITY CRITERION OF THE DISPERSION TERM
 =  2.164    (WHEN MIN. R.F.=1)  AT K=   1, I=   1, J=  99
     5 CALLS TO GCG PACKAGE FOR TRANSPORT TIME STEP  19 IN FLOW TIME STEP   1 STRESS PERIOD   7
    15 TOTAL ITERATIONS
 
 SOLVING FOR HEAD 


     2 CALLS TO PCG ROUTINE FOR TIME STEP   1 IN STRESS PERIOD    7
    16 TOTAL ITERATIONS

 MAXIMUM HEAD CHANGE FOR EACH ITERATION (1 INDICATES THE FIRST INNER ITERATION):

    HEAD CHANGE    HEAD CHANGE    HEAD CHANGE    HEAD CHANGE    HEAD CHANGE 
   LAYER,ROW,COL  LAYER,ROW,COL  LAYER,ROW,COL  LAYER,ROW,COL  LAYER,ROW,COL
 ---------------------------------------------------------------------------
  1  0.7795E-03  0  0.2352E-03  0  0.1282E-03  0  0.7285E-04  0  0.5122E-04
   ( 50,  1, 44)  ( 48,  1, 52)  ( 46,  1, 57)  ( 43,  1, 62)  ( 40,  1, 66)
  0  0.2879E-04  0 -0.1746E-04  0 -0.1006E-04  0 -0.6207E-05  0 -0.4582E-05
   ( 50,  1, 62)  (  1,  1, 70)  (  1,  1, 68)  (  1,  1, 49)  (  1,  1, 53)
  0 -0.3914E-05  0 -0.2735E-05  0 -0.1799E-05  0 -0.1186E-05  0 -0.9656E-06
   (  2,  1, 41)  (  3,  1, 33)  (  6,  1, 30)  (  4,  1,  6)  (  3,  1, 11)
  1 -0.2590E-06
   ( 35,  1,  3)

 MAXIMUM RESIDUAL FOR EACH ITERATION (1 INDICATES THE FIRST INNER ITERATION):

    RESIDUAL       RESIDUAL       RESIDUAL       RESIDUAL       RESIDUAL    
   LAYER,ROW,COL  LAYER,ROW,COL  LAYER,ROW,COL  LAYER,ROW,COL  LAYER,ROW,COL
 ---------------------------------------------------------------------------
  1   5.754      0   3.653      0  -1.722      0  -1.040      0 -0.8229    
   ( 50,  1, 45)  ( 50,  1, 38)  ( 49,  1, 38)  ( 50,  1, 57)  ( 50,  1, 36)
  0 -0.4487      0 -0.3160      0  0.1688      0  0.9610E-01  0  0.7139E-01
   ( 49,  1, 46)  ( 49,  1, 43)  ( 50,  1, 36)  ( 49,  1, 47)  ( 49,  1, 42)
  0 -0.4037E-01  0 -0.3690E-01  0 -0.2788E-01  0  0.2255E-01  0  0.1653E-01
   ( 38,  1,  2)  ( 49,  1, 46)  ( 43,  1,  2)  ( 41,  1,  2)  ( 44,  1,  2)
  1  0.6623E-02
   (  1,  1, 98)


 FLOW MODEL IS TRANSIENT
 FLOW MODEL CONTAINS CONSTANT-HEAD CELLS


 MAXIMUM STEPSIZE DURING WHICH ANY PARTICLE CANNOT MOVE MORE THAN ONE CELL
 =  9.721    (WHEN MIN. R.F.=1)  AT K=   1, I=   1, J=  99

 MAXIMUM STEPSIZE WHICH MEETS STABILITY CRITERION OF THE ADVECTION TERM
 (FOR PURE FINITE-DIFFERENCE OPTION, MIXELM=0) 
 =  9.476    (WHEN MIN. R.F.=1)  AT K=   1, I=   1, J=  99


 TOTAL NUMBER OF POINT SOURCES/SINKS PRESENT IN THE FLOW MODEL =       100

 MAXIMUM STEPSIZE WHICH MEETS STABILITY CRITERION OF THE SINK & SOURCE TERM
 =  122.8    (WHEN MIN. R.F.=1)  AT K=   1, I=   1, J=   1

 MAXIMUM STEPSIZE WHICH MEETS STABILITY CRITERION OF THE DISPERSION TERM
 =  2.164    (WHEN MIN. R.F.=1)  AT K=   1, I=   1, J=  99
     5 CALLS TO GCG PACKAGE FOR TRANSPORT TIME STEP  20 IN FLOW TIME STEP   1 STRESS PERIOD   7
    15 TOTAL ITERATIONS
 
 SOLVING FOR HEAD 


     2 CALLS TO PCG ROUTINE FOR TIME STEP   1 IN STRESS PERIOD    7
    20 TOTAL ITERATIONS

 MAXIMUM HEAD CHANGE FOR EACH ITERATION (1 INDICATES THE FIRST INNER ITERATION):

    HEAD CHANGE    HEAD CHANGE    HEAD CHANGE    HEAD CHANGE    HEAD CHANGE 
   LAYER,ROW,COL  LAYER,ROW,COL  LAYER,ROW,COL  LAYER,ROW,COL  LAYER,ROW,COL
 ---------------------------------------------------------------------------
  1  0.7779E-03  0  0.2349E-03  0  0.1280E-03  0  0.7273E-04  0  0.5111E-04
   ( 50,  1, 43)  ( 48,  1, 51)  ( 46,  1, 57)  ( 43,  1, 62)  ( 39,  1, 65)
  0  0.2865E-04  0 -0.1739E-04  0 -0.1010E-04  0 -0.6315E-05  0 -0.4631E-05
   ( 50,  1, 62)  (  1,  1, 70)  (  1,  1, 69)  (  1,  1, 49)  (  1,  1, 53)
  0 -0.4013E-05  0 -0.2865E-05  0 -0.1940E-05  0 -0.1347E-05  0 -0.1152E-05
   (  2,  1, 41)  (  3,  1, 33)  (  6,  1, 30)  (  4,  1,  6)  (  3,  1, 11)
  0 -0.1229E-05  0 -0.1361E-05  0 -0.1210E-05  0 -0.9208E-06  1 -0.2308E-06
   (  1,  1,  6)  (  7,  1,  1)  (  2,  1,  4)  ( 49,  1, 11)  ( 44,  1, 12)

 MAXIMUM RESIDUAL FOR EACH ITERATION (1 INDICATES THE FIRST INNER ITERATION):

    RESIDUAL       RESIDUAL       RESIDUAL       RESIDUAL       RESIDUAL    
   LAYER,ROW,COL  LAYER,ROW,COL  LAYER,ROW,COL  LAYER,ROW,COL  LAYER,ROW,COL
 ---------------------------------------------------------------------------
  1   5.746      0   3.653      0  -1.694      0  -1.034      0 -0.8197    
   ( 50,  1, 45)  ( 50,  1, 38)  ( 49,  1, 37)  ( 50,  1, 57)  ( 50,  1, 36)
  0 -0.4468      0 -0.3139      0  0.1675      0  0.9649E-01  0  0.7189E-01
   ( 49,  1, 46)  ( 49,  1, 43)  ( 50,  1, 36)  ( 49,  1, 47)  ( 49,  1, 42)
  0 -0.4119E-01  0 -0.3804E-01  0 -0.2936E-01  0  0.2477E-01  0  0.1933E-01
   ( 38,  1,  2)  ( 49,  1, 46)  ( 44,  1,  2)  ( 41,  1,  2)  ( 44,  1,  2)
  0  0.2186E-01  0 -0.1944E-01  0  0.1599E-01  0  0.1483E-01  1 -0.8193E-02
   (  1,  1, 99)  (  2,  1, 99)  (  2,  1, 97)  ( 44,  1,  2)  (  1,  1, 99)


 FLOW MODEL IS TRANSIENT
 FLOW MODEL CONTAINS CONSTANT-HEAD CELLS


 MAXIMUM STEPSIZE DURING WHICH ANY PARTICLE CANNOT MOVE MORE THAN ONE CELL
 =  9.724    (WHEN MIN. R.F.=1)  AT K=   1, I=   1, J=  99

 MAXIMUM STEPSIZE WHICH MEETS STABILITY CRITERION OF THE ADVECTION TERM
 (FOR PURE FINITE-DIFFERENCE OPTION, MIXELM=0) 
 =  9.479    (WHEN MIN. R.F.=1)  AT K=   1, I=   1, J=  99


 TOTAL NUMBER OF POINT SOURCES/SINKS PRESENT IN THE FLOW MODEL =       100

 MAXIMUM STEPSIZE WHICH MEETS STABILITY CRITERION OF THE SINK & SOURCE TERM
 =  122.8    (WHEN MIN. R.F.=1)  AT K=   1, I=   1, J=   1

 MAXIMUM STEPSIZE WHICH MEETS STABILITY CRITERION OF THE DISPERSION TERM
 =  2.165    (WHEN MIN. R.F.=1)  AT K=   1, I=   1, J=  99
     5 CALLS TO GCG PACKAGE FOR TRANSPORT TIME STEP  21 IN FLOW TIME STEP   1 STRESS PERIOD   7
    15 TOTAL ITERATIONS
 
 SOLVING FOR HEAD 


     2 CALLS TO PCG ROUTINE FOR TIME STEP   1 IN STRESS PERIOD    7
    20 TOTAL ITERATIONS

 MAXIMUM HEAD CHANGE FOR EACH ITERATION (1 INDICATES THE FIRST INNER ITERATION):

    HEAD CHANGE    HEAD CHANGE    HEAD CHANGE    HEAD CHANGE    HEAD CHANGE 
   LAYER,ROW,COL  LAYER,ROW,COL  LAYER,ROW,COL  LAYER,ROW,COL  LAYER,ROW,COL
 ---------------------------------------------------------------------------
  1  0.7764E-03  0  0.2341E-03  0  0.1274E-03  0  0.7240E-04  0  0.5082E-04
   ( 50,  1, 43)  ( 48,  1, 51)  ( 46,  1, 57)  ( 43,  1, 62)  ( 40,  1, 66)
  0  0.2859E-04  0 -0.1746E-04  0 -0.1009E-04  0 -0.6375E-05  0 -0.4582E-05
   ( 50,  1, 62)  (  1,  1, 70)  (  1,  1, 69)  (  1,  1, 49)  (  1,  1, 53)
  0 -0.3980E-05  0 -0.2826E-05  0 -0.1945E-05  0 -0.1372E-05  0 -0.1155E-05
   (  2,  1, 41)  (  3,  1, 33)  (  6,  1, 29)  (  4,  1,  6)  (  3,  1, 11)
  0 -0.1243E-05  0 -0.1384E-05  0 -0.1232E-05  0 -0.9279E-06  1 -0.2295E-06
   (  1,  1,  6)  (  6,  1,  1)  (  2,  1,  4)  ( 49,  1, 11)  ( 44,  1, 12)

 MAXIMUM RESIDUAL FOR EACH ITERATION (1 INDICATES THE FIRST INNER ITERATION):

    RESIDUAL       RESIDUAL       RESIDUAL       RESIDUAL       RESIDUAL    
   LAYER,ROW,COL  LAYER,ROW,COL  LAYER,ROW,COL  LAYER,ROW,COL  LAYER,ROW,COL
 ---------------------------------------------------------------------------
  1   5.730      0   3.645      0  -1.721      0  -1.034      0 -0.8199    
   ( 50,  1, 45)  ( 50,  1, 38)  ( 49,  1, 37)  ( 50,  1, 57)  ( 50,  1, 35)
  0 -0.4483      0 -0.3139      0  0.1656      0  0.9583E-01  0  0.7139E-01
   ( 49,  1, 46)  ( 49,  1, 42)  ( 50,  1, 36)  ( 49,  1, 47)  ( 49,  1, 42)
  0 -0.4087E-01  0 -0.3775E-01  0 -0.2914E-01  0  0.2500E-01  0  0.1961E-01
   ( 38,  1,  2)  ( 49,  1, 46)  ( 44,  1,  2)  ( 41,  1,  2)  ( 44,  1,  2)
  0  0.2186E-01  0 -0.1938E-01  0  0.1614E-01  0  0.1490E-01  1 -0.8222E-02
   (  1,  1, 99)  (  2,  1, 99)  (  2,  1, 97)  ( 44,  1,  2)  (  1,  1, 99)


 FLOW MODEL IS TRANSIENT
 FLOW MODEL CONTAINS CONSTANT-HEAD CELLS


 MAXIMUM STEPSIZE DURING WHICH ANY PARTICLE CANNOT MOVE MORE THAN ONE CELL
 =  9.727    (WHEN MIN. R.F.=1)  AT K=   1, I=   1, J=  99

 MAXIMUM STEPSIZE WHICH MEETS STABILITY CRITERION OF THE ADVECTION TERM
 (FOR PURE FINITE-DIFFERENCE OPTION, MIXELM=0) 
 =  9.481    (WHEN MIN. R.F.=1)  AT K=   1, I=   1, J=  99


 TOTAL NUMBER OF POINT SOURCES/SINKS PRESENT IN THE FLOW MODEL =       100

 MAXIMUM STEPSIZE WHICH MEETS STABILITY CRITERION OF THE SINK & SOURCE TERM
 =  122.8    (WHEN MIN. R.F.=1)  AT K=   1, I=   1, J=   1

 MAXIMUM STEPSIZE WHICH MEETS STABILITY CRITERION OF THE DISPERSION TERM
 =  2.166    (WHEN MIN. R.F.=1)  AT K=   1, I=   1, J=  99
     5 CALLS TO GCG PACKAGE FOR TRANSPORT TIME STEP  22 IN FLOW TIME STEP   1 STRESS PERIOD   7
    15 TOTAL ITERATIONS
 
 SOLVING FOR HEAD 


     2 CALLS TO PCG ROUTINE FOR TIME STEP   1 IN STRESS PERIOD    7
    20 TOTAL ITERATIONS

 MAXIMUM HEAD CHANGE FOR EACH ITERATION (1 INDICATES THE FIRST INNER ITERATION):

    HEAD CHANGE    HEAD CHANGE    HEAD CHANGE    HEAD CHANGE    HEAD CHANGE 
   LAYER,ROW,COL  LAYER,ROW,COL  LAYER,ROW,COL  LAYER,ROW,COL  LAYER,ROW,COL
 ---------------------------------------------------------------------------
  1  0.7747E-03  0  0.2333E-03  0  0.1270E-03  0  0.7220E-04  0  0.5071E-04
   ( 50,  1, 43)  ( 48,  1, 51)  ( 46,  1, 57)  ( 43,  1, 62)  ( 40,  1, 66)
  0  0.2847E-04  0 -0.1748E-04  0 -0.1013E-04  0 -0.6369E-05  0 -0.4615E-05
   ( 50,  1, 62)  (  1,  1, 70)  (  1,  1, 68)  (  1,  1, 49)  (  1,  1, 53)
  0 -0.3975E-05  0 -0.2841E-05  0 -0.1966E-05  0 -0.1397E-05  0 -0.1182E-05
   (  2,  1, 41)  (  3,  1, 32)  (  6,  1, 29)  (  4,  1,  6)  (  3,  1, 11)
  0 -0.1274E-05  0 -0.1420E-05  0 -0.1254E-05  0 -0.9579E-06  1 -0.2316E-06
   (  1,  1,  6)  (  6,  1,  1)  (  2,  1,  4)  ( 49,  1, 11)  ( 44,  1, 12)

 MAXIMUM RESIDUAL FOR EACH ITERATION (1 INDICATES THE FIRST INNER ITERATION):

    RESIDUAL       RESIDUAL       RESIDUAL       RESIDUAL       RESIDUAL    
   LAYER,ROW,COL  LAYER,ROW,COL  LAYER,ROW,COL  LAYER,ROW,COL  LAYER,ROW,COL
 ---------------------------------------------------------------------------
  1   5.712      0   3.633      0  -1.737      0  -1.032      0 -0.8209    
   ( 50,  1, 45)  ( 50,  1, 38)  ( 49,  1, 37)  ( 50,  1, 57)  ( 50,  1, 35)
  0 -0.4489      0 -0.3143      0  0.1648      0  0.9568E-01  0  0.7128E-01
   ( 49,  1, 46)  ( 49,  1, 42)  ( 50,  1, 36)  ( 49,  1, 47)  ( 49,  1, 42)
  0 -0.4121E-01  0 -0.3786E-01  0 -0.2950E-01  0  0.2533E-01  0  0.2003E-01
   ( 38,  1,  2)  ( 49,  1, 46)  ( 44,  1,  2)  ( 41,  1,  2)  ( 44,  1,  2)
  0  0.2238E-01  0 -0.1979E-01  0  0.1648E-01  0  0.1525E-01  1 -0.8391E-02
   (  1,  1, 99)  (  2,  1, 99)  (  2,  1, 97)  ( 44,  1,  2)  (  1,  1, 99)


 FLOW MODEL IS TRANSIENT
 FLOW MODEL CONTAINS CONSTANT-HEAD CELLS


 MAXIMUM STEPSIZE DURING WHICH ANY PARTICLE CANNOT MOVE MORE THAN ONE CELL
 =  9.730    (WHEN MIN. R.F.=1)  AT K=   1, I=   1, J=  99

 MAXIMUM STEPSIZE WHICH MEETS STABILITY CRITERION OF THE ADVECTION TERM
 (FOR PURE FINITE-DIFFERENCE OPTION, MIXELM=0) 
 =  9.484    (WHEN MIN. R.F.=1)  AT K=   1, I=   1, J=  99


 TOTAL NUMBER OF POINT SOURCES/SINKS PRESENT IN THE FLOW MODEL =       100

 MAXIMUM STEPSIZE WHICH MEETS STABILITY CRITERION OF THE SINK & SOURCE TERM
 =  122.8    (WHEN MIN. R.F.=1)  AT K=   1, I=   1, J=   1

 MAXIMUM STEPSIZE WHICH MEETS STABILITY CRITERION OF THE DISPERSION TERM
 =  2.166    (WHEN MIN. R.F.=1)  AT K=   1, I=   1, J=  99
     5 CALLS TO GCG PACKAGE FOR TRANSPORT TIME STEP  23 IN FLOW TIME STEP   1 STRESS PERIOD   7
    15 TOTAL ITERATIONS
 
 SOLVING FOR HEAD 


     2 CALLS TO PCG ROUTINE FOR TIME STEP   1 IN STRESS PERIOD    7
    20 TOTAL ITERATIONS

 MAXIMUM HEAD CHANGE FOR EACH ITERATION (1 INDICATES THE FIRST INNER ITERATION):

    HEAD CHANGE    HEAD CHANGE    HEAD CHANGE    HEAD CHANGE    HEAD CHANGE 
   LAYER,ROW,COL  LAYER,ROW,COL  LAYER,ROW,COL  LAYER,ROW,COL  LAYER,ROW,COL
 ---------------------------------------------------------------------------
  1  0.7726E-03  0  0.2324E-03  0  0.1266E-03  0  0.7192E-04  0  0.5056E-04
   ( 50,  1, 43)  ( 48,  1, 51)  ( 46,  1, 57)  ( 43,  1, 62)  ( 40,  1, 66)
  0  0.2840E-04  0 -0.1735E-04  0 -0.1005E-04  0 -0.6276E-05  0 -0.4512E-05
   ( 50,  1, 62)  (  1,  1, 69)  (  1,  1, 69)  (  1,  1, 49)  (  1,  1, 53)
  0 -0.3852E-05  0 -0.2701E-05  0 -0.1829E-05  0 -0.1248E-05  0 -0.1010E-05
   (  2,  1, 41)  (  3,  1, 32)  (  6,  1, 29)  (  4,  1,  6)  (  3,  1, 11)
  0 -0.1042E-05  0 -0.1164E-05  0 -0.1081E-05  0 -0.7881E-06  1 -0.2078E-06
   (  1,  1,  6)  (  6,  1,  1)  (  1,  1,  3)  (  1,  1,  6)  ( 44,  1, 12)

 MAXIMUM RESIDUAL FOR EACH ITERATION (1 INDICATES THE FIRST INNER ITERATION):

    RESIDUAL       RESIDUAL       RESIDUAL       RESIDUAL       RESIDUAL    
   LAYER,ROW,COL  LAYER,ROW,COL  LAYER,ROW,COL  LAYER,ROW,COL  LAYER,ROW,COL
 ---------------------------------------------------------------------------
  1   5.698      0   3.616      0  -1.749      0  -1.031      0 -0.8218    
   ( 50,  1, 45)  ( 50,  1, 38)  ( 49,  1, 37)  ( 50,  1, 57)  ( 50,  1, 35)
  0 -0.4471      0 -0.3138      0  0.1632      0  0.9493E-01  0  0.7022E-01
   ( 49,  1, 46)  ( 49,  1, 42)  ( 50,  1, 35)  ( 49,  1, 46)  ( 49,  1, 42)
  0 -0.4071E-01  0 -0.3673E-01  0 -0.2842E-01  0  0.2318E-01  0  0.1724E-01
   ( 38,  1,  2)  ( 49,  1, 46)  ( 44,  1,  2)  ( 41,  1,  2)  ( 44,  1,  2)
  0  0.1862E-01  0 -0.1611E-01  0  0.1382E-01  0  0.1319E-01  1 -0.7109E-02
   (  1,  1, 99)  (  2,  1, 99)  (  2,  1, 97)  ( 44,  1,  2)  (  1,  1, 99)


 FLOW MODEL IS TRANSIENT
 FLOW MODEL CONTAINS CONSTANT-HEAD CELLS


 MAXIMUM STEPSIZE DURING WHICH ANY PARTICLE CANNOT MOVE MORE THAN ONE CELL
 =  9.733    (WHEN MIN. R.F.=1)  AT K=   1, I=   1, J=  99

 MAXIMUM STEPSIZE WHICH MEETS STABILITY CRITERION OF THE ADVECTION TERM
 (FOR PURE FINITE-DIFFERENCE OPTION, MIXELM=0) 
 =  9.487    (WHEN MIN. R.F.=1)  AT K=   1, I=   1, J=  99


 TOTAL NUMBER OF POINT SOURCES/SINKS PRESENT IN THE FLOW MODEL =       100

 MAXIMUM STEPSIZE WHICH MEETS STABILITY CRITERION OF THE SINK & SOURCE TERM
 =  122.8    (WHEN MIN. R.F.=1)  AT K=   1, I=   1, J=   1

 MAXIMUM STEPSIZE WHICH MEETS STABILITY CRITERION OF THE DISPERSION TERM
 =  2.167    (WHEN MIN. R.F.=1)  AT K=   1, I=   1, J=  99
     5 CALLS TO GCG PACKAGE FOR TRANSPORT TIME STEP  24 IN FLOW TIME STEP   1 STRESS PERIOD   7
    15 TOTAL ITERATIONS
 
 SOLVING FOR HEAD 


     2 CALLS TO PCG ROUTINE FOR TIME STEP   1 IN STRESS PERIOD    7
    20 TOTAL ITERATIONS

 MAXIMUM HEAD CHANGE FOR EACH ITERATION (1 INDICATES THE FIRST INNER ITERATION):

    HEAD CHANGE    HEAD CHANGE    HEAD CHANGE    HEAD CHANGE    HEAD CHANGE 
   LAYER,ROW,COL  LAYER,ROW,COL  LAYER,ROW,COL  LAYER,ROW,COL  LAYER,ROW,COL
 ---------------------------------------------------------------------------
  1  0.7707E-03  0  0.2317E-03  0  0.1263E-03  0  0.7185E-04  0  0.5056E-04
   ( 50,  1, 43)  ( 48,  1, 51)  ( 46,  1, 57)  ( 43,  1, 62)  ( 40,  1, 65)
  0  0.2830E-04  0 -0.1735E-04  0 -0.1009E-04  0 -0.6260E-05  0 -0.4551E-05
   ( 50,  1, 62)  (  1,  1, 70)  (  1,  1, 68)  (  1,  1, 48)  (  1,  1, 53)
  0 -0.3878E-05  0 -0.2751E-05  0 -0.1889E-05  0 -0.1310E-05  0 -0.1080E-05
   (  2,  1, 41)  (  3,  1, 32)  (  6,  1, 29)  (  4,  1,  6)  (  3,  1, 11)
  0 -0.1133E-05  0 -0.1267E-05  0 -0.1156E-05  0 -0.8447E-06  1 -0.2160E-06
   (  1,  1,  6)  (  6,  1,  1)  (  1,  1,  3)  ( 49,  1, 11)  ( 44,  1, 12)

 MAXIMUM RESIDUAL FOR EACH ITERATION (1 INDICATES THE FIRST INNER ITERATION):

    RESIDUAL       RESIDUAL       RESIDUAL       RESIDUAL       RESIDUAL    
   LAYER,ROW,COL  LAYER,ROW,COL  LAYER,ROW,COL  LAYER,ROW,COL  LAYER,ROW,COL
 ---------------------------------------------------------------------------
  1   5.672      0   3.596      0  -1.754      0  -1.029      0 -0.8213    
   ( 50,  1, 45)  ( 50,  1, 38)  ( 49,  1, 37)  ( 50,  1, 57)  ( 50,  1, 35)
  0 -0.4466      0 -0.3144      0  0.1646      0  0.9512E-01  0  0.7025E-01
   ( 49,  1, 46)  ( 49,  1, 42)  ( 50,  1, 35)  ( 49,  1, 46)  ( 49,  1, 42)
  0 -0.4106E-01  0 -0.3719E-01  0 -0.2918E-01  0  0.2398E-01  0  0.1825E-01
   ( 38,  1,  2)  ( 49,  1, 45)  ( 44,  1,  2)  ( 41,  1,  2)  ( 44,  1,  2)
  0  0.2002E-01  0 -0.1742E-01  0  0.1484E-01  0  0.1414E-01  1 -0.7616E-02
   (  1,  1, 99)  (  2,  1, 99)  (  2,  1, 97)  ( 44,  1,  2)  (  1,  1, 99)


 FLOW MODEL IS TRANSIENT
 FLOW MODEL CONTAINS CONSTANT-HEAD CELLS


 MAXIMUM STEPSIZE DURING WHICH ANY PARTICLE CANNOT MOVE MORE THAN ONE CELL
 =  9.736    (WHEN MIN. R.F.=1)  AT K=   1, I=   1, J=  99

 MAXIMUM STEPSIZE WHICH MEETS STABILITY CRITERION OF THE ADVECTION TERM
 (FOR PURE FINITE-DIFFERENCE OPTION, MIXELM=0) 
 =  9.490    (WHEN MIN. R.F.=1)  AT K=   1, I=   1, J=  99


 TOTAL NUMBER OF POINT SOURCES/SINKS PRESENT IN THE FLOW MODEL =       100

 MAXIMUM STEPSIZE WHICH MEETS STABILITY CRITERION OF THE SINK & SOURCE TERM
 =  122.8    (WHEN MIN. R.F.=1)  AT K=   1, I=   1, J=   1

 MAXIMUM STEPSIZE WHICH MEETS STABILITY CRITERION OF THE DISPERSION TERM
 =  2.167    (WHEN MIN. R.F.=1)  AT K=   1, I=   1, J=  99
     5 CALLS TO GCG PACKAGE FOR TRANSPORT TIME STEP  25 IN FLOW TIME STEP   1 STRESS PERIOD   7
    15 TOTAL ITERATIONS
 
 SOLVING FOR HEAD 


     2 CALLS TO PCG ROUTINE FOR TIME STEP   1 IN STRESS PERIOD    7
    20 TOTAL ITERATIONS

 MAXIMUM HEAD CHANGE FOR EACH ITERATION (1 INDICATES THE FIRST INNER ITERATION):

    HEAD CHANGE    HEAD CHANGE    HEAD CHANGE    HEAD CHANGE    HEAD CHANGE 
   LAYER,ROW,COL  LAYER,ROW,COL  LAYER,ROW,COL  LAYER,ROW,COL  LAYER,ROW,COL
 ---------------------------------------------------------------------------
  1  0.7684E-03  0  0.2307E-03  0  0.1259E-03  0  0.7166E-04  0  0.5051E-04
   ( 50,  1, 43)  ( 48,  1, 51)  ( 46,  1, 57)  ( 43,  1, 62)  ( 40,  1, 65)
  0  0.2818E-04  0 -0.1732E-04  0 -0.1010E-04  0 -0.6284E-05  0 -0.4570E-05
   ( 50,  1, 62)  (  1,  1, 70)  (  1,  1, 68)  (  1,  1, 48)  (  1,  1, 53)
  0 -0.3902E-05  0 -0.2788E-05  0 -0.1931E-05  0 -0.1358E-05  0 -0.1135E-05
   (  2,  1, 40)  (  3,  1, 32)  (  6,  1, 29)  (  4,  1,  6)  (  3,  1, 11)
  0 -0.1199E-05  0 -0.1344E-05  0 -0.1208E-05  0 -0.9097E-06  1 -0.2244E-06
   (  1,  1,  6)  (  6,  1,  1)  (  1,  1,  3)  ( 49,  1, 11)  ( 44,  1, 12)

 MAXIMUM RESIDUAL FOR EACH ITERATION (1 INDICATES THE FIRST INNER ITERATION):

    RESIDUAL       RESIDUAL       RESIDUAL       RESIDUAL       RESIDUAL    
   LAYER,ROW,COL  LAYER,ROW,COL  LAYER,ROW,COL  LAYER,ROW,COL  LAYER,ROW,COL
 ---------------------------------------------------------------------------
  1   5.655      0   3.568      0  -1.756      0  -1.027      0 -0.8202    
   ( 50,  1, 45)  ( 50,  1, 38)  ( 49,  1, 37)  ( 50,  1, 57)  ( 50,  1, 35)
  0 -0.4455      0 -0.3141      0  0.1656      0  0.9540E-01  0  0.7012E-01
   ( 49,  1, 46)  ( 49,  1, 42)  ( 50,  1, 35)  ( 49,  1, 46)  ( 49,  1, 42)
  0 -0.4144E-01  0 -0.3759E-01  0 -0.2975E-01  0  0.2463E-01  0  0.1904E-01
   ( 38,  1,  2)  ( 49,  1, 45)  ( 44,  1,  2)  ( 41,  1,  2)  ( 44,  1,  2)
  0  0.2109E-01  0 -0.1838E-01  0  0.1560E-01  0  0.1485E-01  1 -0.7972E-02
   (  1,  1, 99)  (  2,  1, 99)  (  2,  1, 97)  ( 44,  1,  2)  (  1,  1, 99)


 FLOW MODEL IS TRANSIENT
 FLOW MODEL CONTAINS CONSTANT-HEAD CELLS


 MAXIMUM STEPSIZE DURING WHICH ANY PARTICLE CANNOT MOVE MORE THAN ONE CELL
 =  9.739    (WHEN MIN. R.F.=1)  AT K=   1, I=   1, J=  99

 MAXIMUM STEPSIZE WHICH MEETS STABILITY CRITERION OF THE ADVECTION TERM
 (FOR PURE FINITE-DIFFERENCE OPTION, MIXELM=0) 
 =  9.493    (WHEN MIN. R.F.=1)  AT K=   1, I=   1, J=  99


 TOTAL NUMBER OF POINT SOURCES/SINKS PRESENT IN THE FLOW MODEL =       100

 MAXIMUM STEPSIZE WHICH MEETS STABILITY CRITERION OF THE SINK & SOURCE TERM
 =  122.8    (WHEN MIN. R.F.=1)  AT K=   1, I=   1, J=   1

 MAXIMUM STEPSIZE WHICH MEETS STABILITY CRITERION OF THE DISPERSION TERM
 =  2.168    (WHEN MIN. R.F.=1)  AT K=   1, I=   1, J=  99
     5 CALLS TO GCG PACKAGE FOR TRANSPORT TIME STEP  26 IN FLOW TIME STEP   1 STRESS PERIOD   7
    15 TOTAL ITERATIONS
 
 SOLVING FOR HEAD 


     2 CALLS TO PCG ROUTINE FOR TIME STEP   1 IN STRESS PERIOD    7
    20 TOTAL ITERATIONS

 MAXIMUM HEAD CHANGE FOR EACH ITERATION (1 INDICATES THE FIRST INNER ITERATION):

    HEAD CHANGE    HEAD CHANGE    HEAD CHANGE    HEAD CHANGE    HEAD CHANGE 
   LAYER,ROW,COL  LAYER,ROW,COL  LAYER,ROW,COL  LAYER,ROW,COL  LAYER,ROW,COL
 ---------------------------------------------------------------------------
  1  0.7659E-03  0  0.2298E-03  0  0.1255E-03  0  0.7145E-04  0  0.5040E-04
   ( 50,  1, 43)  ( 48,  1, 51)  ( 46,  1, 57)  ( 43,  1, 62)  ( 40,  1, 65)
  0  0.2810E-04  0 -0.1727E-04  0 -0.1004E-04  0 -0.6193E-05  0 -0.4507E-05
   ( 50,  1, 62)  (  1,  1, 70)  (  1,  1, 68)  (  1,  1, 48)  (  1,  1, 52)
  0 -0.3839E-05  0 -0.2706E-05  0 -0.1859E-05  0 -0.1279E-05  0 -0.1045E-05
   (  2,  1, 40)  (  3,  1, 32)  (  6,  1, 29)  (  4,  1,  6)  (  3,  1, 11)
  0 -0.1079E-05  0 -0.1211E-05  0 -0.1116E-05  0 -0.8031E-06  1 -0.2096E-06
   (  1,  1,  6)  (  4,  1,  1)  (  1,  1,  3)  ( 49,  1, 11)  ( 44,  1, 12)

 MAXIMUM RESIDUAL FOR EACH ITERATION (1 INDICATES THE FIRST INNER ITERATION):

    RESIDUAL       RESIDUAL       RESIDUAL       RESIDUAL       RESIDUAL    
   LAYER,ROW,COL  LAYER,ROW,COL  LAYER,ROW,COL  LAYER,ROW,COL  LAYER,ROW,COL
 ---------------------------------------------------------------------------
  1   5.642      0   3.548      0  -1.746      0  -1.024      0 -0.8187    
   ( 50,  1, 44)  ( 50,  1, 37)  ( 49,  1, 37)  ( 50,  1, 57)  ( 50,  1, 35)
  0 -0.4438      0 -0.3135      0  0.1662      0  0.9493E-01  0  0.6937E-01
   ( 49,  1, 46)  ( 49,  1, 42)  ( 50,  1, 35)  ( 49,  1, 46)  ( 49,  1, 41)
  0 -0.4114E-01  0 -0.3694E-01  0 -0.2930E-01  0  0.2349E-01  0  0.1754E-01
   ( 38,  1,  2)  ( 49,  1, 45)  ( 44,  1,  2)  ( 41,  1,  2)  ( 44,  1,  2)
  0  0.1908E-01  0 -0.1639E-01  0  0.1413E-01  0  0.1375E-01  1 -0.7280E-02
   (  1,  1, 99)  (  2,  1, 99)  (  2,  1, 97)  ( 44,  1,  2)  (  1,  1, 99)


 FLOW MODEL IS TRANSIENT
 FLOW MODEL CONTAINS CONSTANT-HEAD CELLS


 MAXIMUM STEPSIZE DURING WHICH ANY PARTICLE CANNOT MOVE MORE THAN ONE CELL
 =  9.742    (WHEN MIN. R.F.=1)  AT K=   1, I=   1, J=  99

 MAXIMUM STEPSIZE WHICH MEETS STABILITY CRITERION OF THE ADVECTION TERM
 (FOR PURE FINITE-DIFFERENCE OPTION, MIXELM=0) 
 =  9.495    (WHEN MIN. R.F.=1)  AT K=   1, I=   1, J=  99


 TOTAL NUMBER OF POINT SOURCES/SINKS PRESENT IN THE FLOW MODEL =       100

 MAXIMUM STEPSIZE WHICH MEETS STABILITY CRITERION OF THE SINK & SOURCE TERM
 =  122.8    (WHEN MIN. R.F.=1)  AT K=   1, I=   1, J=   1

 MAXIMUM STEPSIZE WHICH MEETS STABILITY CRITERION OF THE DISPERSION TERM
 =  2.169    (WHEN MIN. R.F.=1)  AT K=   1, I=   1, J=  99
     5 CALLS TO GCG PACKAGE FOR TRANSPORT TIME STEP  27 IN FLOW TIME STEP   1 STRESS PERIOD   7
    15 TOTAL ITERATIONS
 
 SOLVING FOR HEAD 


     2 CALLS TO PCG ROUTINE FOR TIME STEP   1 IN STRESS PERIOD    7
    20 TOTAL ITERATIONS

 MAXIMUM HEAD CHANGE FOR EACH ITERATION (1 INDICATES THE FIRST INNER ITERATION):

    HEAD CHANGE    HEAD CHANGE    HEAD CHANGE    HEAD CHANGE    HEAD CHANGE 
   LAYER,ROW,COL  LAYER,ROW,COL  LAYER,ROW,COL  LAYER,ROW,COL  LAYER,ROW,COL
 ---------------------------------------------------------------------------
  1  0.7634E-03  0  0.2289E-03  0  0.1251E-03  0  0.7116E-04  0  0.5022E-04
   ( 50,  1, 43)  ( 48,  1, 51)  ( 46,  1, 56)  ( 43,  1, 61)  ( 40,  1, 65)
  0  0.2801E-04  0 -0.1720E-04  0 -0.1011E-04  0 -0.6233E-05  0 -0.4548E-05
   ( 50,  1, 61)  (  1,  1, 70)  (  1,  1, 68)  (  1,  1, 48)  (  1,  1, 52)
  0 -0.3873E-05  0 -0.2756E-05  0 -0.1917E-05  0 -0.1339E-05  0 -0.1116E-05
   (  2,  1, 40)  (  3,  1, 32)  (  6,  1, 29)  (  4,  1,  6)  (  3,  1, 11)
  0 -0.1168E-05  0 -0.1315E-05  0 -0.1189E-05  0 -0.8890E-06  1 -0.2187E-06
   (  1,  1,  6)  (  4,  1,  1)  (  1,  1,  3)  ( 49,  1, 11)  ( 44,  1, 12)

 MAXIMUM RESIDUAL FOR EACH ITERATION (1 INDICATES THE FIRST INNER ITERATION):

    RESIDUAL       RESIDUAL       RESIDUAL       RESIDUAL       RESIDUAL    
   LAYER,ROW,COL  LAYER,ROW,COL  LAYER,ROW,COL  LAYER,ROW,COL  LAYER,ROW,COL
 ---------------------------------------------------------------------------
  1   5.634      0   3.554      0  -1.735      0  -1.023      0 -0.8172    
   ( 50,  1, 44)  ( 50,  1, 37)  ( 49,  1, 37)  ( 50,  1, 57)  ( 50,  1, 35)
  0 -0.4425      0 -0.3125      0  0.1670      0  0.9508E-01  0  0.6967E-01
   ( 49,  1, 45)  ( 49,  1, 42)  ( 50,  1, 35)  ( 49,  1, 46)  ( 49,  1, 41)
  0 -0.4146E-01  0 -0.3733E-01  0 -0.3002E-01  0  0.2426E-01  0  0.1856E-01
   ( 38,  1,  2)  ( 49,  1, 45)  ( 44,  1,  2)  ( 41,  1,  2)  ( 44,  1,  2)
  0  0.2051E-01  0 -0.1770E-01  0  0.1515E-01  0  0.1470E-01  1 -0.7774E-02
   (  1,  1, 99)  (  2,  1, 99)  (  2,  1, 97)  ( 44,  1,  2)  (  1,  1, 99)


 FLOW MODEL IS TRANSIENT
 FLOW MODEL CONTAINS CONSTANT-HEAD CELLS


 MAXIMUM STEPSIZE DURING WHICH ANY PARTICLE CANNOT MOVE MORE THAN ONE CELL
 =  9.745    (WHEN MIN. R.F.=1)  AT K=   1, I=   1, J=  99

 MAXIMUM STEPSIZE WHICH MEETS STABILITY CRITERION OF THE ADVECTION TERM
 (FOR PURE FINITE-DIFFERENCE OPTION, MIXELM=0) 
 =  9.498    (WHEN MIN. R.F.=1)  AT K=   1, I=   1, J=  99


 TOTAL NUMBER OF POINT SOURCES/SINKS PRESENT IN THE FLOW MODEL =       100

 MAXIMUM STEPSIZE WHICH MEETS STABILITY CRITERION OF THE SINK & SOURCE TERM
 =  122.8    (WHEN MIN. R.F.=1)  AT K=   1, I=   1, J=   1

 MAXIMUM STEPSIZE WHICH MEETS STABILITY CRITERION OF THE DISPERSION TERM
 =  2.169    (WHEN MIN. R.F.=1)  AT K=   1, I=   1, J=  99
     5 CALLS TO GCG PACKAGE FOR TRANSPORT TIME STEP  28 IN FLOW TIME STEP   1 STRESS PERIOD   7
    15 TOTAL ITERATIONS
 
 SOLVING FOR HEAD 


     2 CALLS TO PCG ROUTINE FOR TIME STEP   1 IN STRESS PERIOD    7
    16 TOTAL ITERATIONS

 MAXIMUM HEAD CHANGE FOR EACH ITERATION (1 INDICATES THE FIRST INNER ITERATION):

    HEAD CHANGE    HEAD CHANGE    HEAD CHANGE    HEAD CHANGE    HEAD CHANGE 
   LAYER,ROW,COL  LAYER,ROW,COL  LAYER,ROW,COL  LAYER,ROW,COL  LAYER,ROW,COL
 ---------------------------------------------------------------------------
  1  0.7607E-03  0  0.2280E-03  0  0.1246E-03  0  0.7099E-04  0  0.5016E-04
   ( 50,  1, 43)  ( 48,  1, 51)  ( 46,  1, 56)  ( 43,  1, 61)  ( 40,  1, 65)
  0  0.2798E-04  0 -0.1714E-04  0 -0.1006E-04  0 -0.6127E-05  0 -0.4472E-05
   ( 50,  1, 61)  (  1,  1, 70)  (  1,  1, 68)  (  1,  1, 48)  (  1,  1, 52)
  0 -0.3781E-05  0 -0.2654E-05  0 -0.1804E-05  0 -0.1221E-05  0 -0.9817E-06
   (  2,  1, 40)  (  1,  1, 44)  (  6,  1, 29)  (  4,  1,  5)  (  3,  1, 11)
  1 -0.2707E-06
   ( 36,  1,  3)

 MAXIMUM RESIDUAL FOR EACH ITERATION (1 INDICATES THE FIRST INNER ITERATION):

    RESIDUAL       RESIDUAL       RESIDUAL       RESIDUAL       RESIDUAL    
   LAYER,ROW,COL  LAYER,ROW,COL  LAYER,ROW,COL  LAYER,ROW,COL  LAYER,ROW,COL
 ---------------------------------------------------------------------------
  1   5.625      0   3.558      0  -1.718      0  -1.021      0 -0.8144    
   ( 50,  1, 44)  ( 50,  1, 37)  ( 49,  1, 37)  ( 50,  1, 56)  ( 50,  1, 35)
  0 -0.4422      0 -0.3119      0  0.1675      0  0.9453E-01  0  0.6915E-01
   ( 49,  1, 45)  ( 49,  1, 42)  ( 50,  1, 35)  ( 49,  1, 46)  ( 49,  1, 41)
  0 -0.4108E-01  0 -0.3646E-01  0 -0.2920E-01  0  0.2260E-01  0  0.1639E-01
   ( 38,  1,  2)  ( 49,  1, 45)  ( 44,  1,  2)  ( 41,  1,  2)  ( 44,  1,  2)
  1  0.6355E-02
   (  1,  1, 98)


 FLOW MODEL IS TRANSIENT
 FLOW MODEL CONTAINS CONSTANT-HEAD CELLS


 MAXIMUM STEPSIZE DURING WHICH ANY PARTICLE CANNOT MOVE MORE THAN ONE CELL
 =  9.748    (WHEN MIN. R.F.=1)  AT K=   1, I=   1, J=  99

 MAXIMUM STEPSIZE WHICH MEETS STABILITY CRITERION OF THE ADVECTION TERM
 (FOR PURE FINITE-DIFFERENCE OPTION, MIXELM=0) 
 =  9.501    (WHEN MIN. R.F.=1)  AT K=   1, I=   1, J=  99


 TOTAL NUMBER OF POINT SOURCES/SINKS PRESENT IN THE FLOW MODEL =       100

 MAXIMUM STEPSIZE WHICH MEETS STABILITY CRITERION OF THE SINK & SOURCE TERM
 =  122.8    (WHEN MIN. R.F.=1)  AT K=   1, I=   1, J=   1

 MAXIMUM STEPSIZE WHICH MEETS STABILITY CRITERION OF THE DISPERSION TERM
 =  2.170    (WHEN MIN. R.F.=1)  AT K=   1, I=   1, J=  99
     5 CALLS TO GCG PACKAGE FOR TRANSPORT TIME STEP  29 IN FLOW TIME STEP   1 STRESS PERIOD   7
    15 TOTAL ITERATIONS
 
 SOLVING FOR HEAD 


     2 CALLS TO PCG ROUTINE FOR TIME STEP   1 IN STRESS PERIOD    7
    20 TOTAL ITERATIONS

 MAXIMUM HEAD CHANGE FOR EACH ITERATION (1 INDICATES THE FIRST INNER ITERATION):

    HEAD CHANGE    HEAD CHANGE    HEAD CHANGE    HEAD CHANGE    HEAD CHANGE 
   LAYER,ROW,COL  LAYER,ROW,COL  LAYER,ROW,COL  LAYER,ROW,COL  LAYER,ROW,COL
 ---------------------------------------------------------------------------
  1  0.7586E-03  0  0.2272E-03  0  0.1245E-03  0  0.7093E-04  0  0.5014E-04
   ( 50,  1, 42)  ( 48,  1, 50)  ( 46,  1, 56)  ( 43,  1, 61)  ( 40,  1, 65)
  0  0.2788E-04  0 -0.1709E-04  0 -0.1006E-04  0 -0.6075E-05  0 -0.4585E-05
   ( 50,  1, 61)  (  1,  1, 70)  (  1,  1, 68)  (  1,  1, 48)  (  1,  1, 52)
  0 -0.3906E-05  0 -0.2797E-05  0 -0.1940E-05  0 -0.1339E-05  0 -0.1140E-05
   (  2,  1, 40)  (  1,  1, 44)  (  6,  1, 29)  (  4,  1,  5)  (  2,  1,  9)
  0 -0.1196E-05  0 -0.1334E-05  0 -0.1193E-05  0 -0.9171E-06  1 -0.2203E-06
   (  7,  1,  1)  (  3,  1,  1)  (  1,  1,  3)  ( 49,  1, 11)  ( 44,  1, 12)

 MAXIMUM RESIDUAL FOR EACH ITERATION (1 INDICATES THE FIRST INNER ITERATION):

    RESIDUAL       RESIDUAL       RESIDUAL       RESIDUAL       RESIDUAL    
   LAYER,ROW,COL  LAYER,ROW,COL  LAYER,ROW,COL  LAYER,ROW,COL  LAYER,ROW,COL
 ---------------------------------------------------------------------------
  1   5.611      0   3.558      0  -1.696      0  -1.020      0 -0.8122    
   ( 50,  1, 44)  ( 50,  1, 37)  ( 49,  1, 37)  ( 50,  1, 56)  ( 50,  1, 35)
  0 -0.4419      0 -0.3114      0  0.1695      0  0.9526E-01  0  0.7033E-01
   ( 49,  1, 45)  ( 49,  1, 42)  ( 50,  1, 35)  ( 49,  1, 46)  ( 49,  1, 41)
  0 -0.4195E-01  0 -0.3763E-01  0 -0.3090E-01  0  0.2494E-01  0  0.1841E-01
   ( 38,  1,  2)  ( 49,  1, 45)  ( 44,  1,  2)  ( 42,  1,  2)  ( 44,  1,  2)
  0  0.2096E-01  0 -0.1792E-01  0  0.1522E-01  0  0.1504E-01  1 -0.7825E-02
   (  1,  1, 99)  (  2,  1, 99)  (  2,  1, 97)  ( 44,  1,  2)  (  1,  1, 99)


 FLOW MODEL IS TRANSIENT
 FLOW MODEL CONTAINS CONSTANT-HEAD CELLS


 MAXIMUM STEPSIZE DURING WHICH ANY PARTICLE CANNOT MOVE MORE THAN ONE CELL
 =  9.751    (WHEN MIN. R.F.=1)  AT K=   1, I=   1, J=  99

 MAXIMUM STEPSIZE WHICH MEETS STABILITY CRITERION OF THE ADVECTION TERM
 (FOR PURE FINITE-DIFFERENCE OPTION, MIXELM=0) 
 =  9.504    (WHEN MIN. R.F.=1)  AT K=   1, I=   1, J=  99


 TOTAL NUMBER OF POINT SOURCES/SINKS PRESENT IN THE FLOW MODEL =       100

 MAXIMUM STEPSIZE WHICH MEETS STABILITY CRITERION OF THE SINK & SOURCE TERM
 =  122.8    (WHEN MIN. R.F.=1)  AT K=   1, I=   1, J=   1

 MAXIMUM STEPSIZE WHICH MEETS STABILITY CRITERION OF THE DISPERSION TERM
 =  2.171    (WHEN MIN. R.F.=1)  AT K=   1, I=   1, J=  99
     5 CALLS TO GCG PACKAGE FOR TRANSPORT TIME STEP  30 IN FLOW TIME STEP   1 STRESS PERIOD   7
    15 TOTAL ITERATIONS
 
 SOLVING FOR HEAD 


     2 CALLS TO PCG ROUTINE FOR TIME STEP   1 IN STRESS PERIOD    7
    20 TOTAL ITERATIONS

 MAXIMUM HEAD CHANGE FOR EACH ITERATION (1 INDICATES THE FIRST INNER ITERATION):

    HEAD CHANGE    HEAD CHANGE    HEAD CHANGE    HEAD CHANGE    HEAD CHANGE 
   LAYER,ROW,COL  LAYER,ROW,COL  LAYER,ROW,COL  LAYER,ROW,COL  LAYER,ROW,COL
 ---------------------------------------------------------------------------
  1  0.7571E-03  0  0.2265E-03  0  0.1238E-03  0  0.7054E-04  0  0.4986E-04
   ( 50,  1, 42)  ( 48,  1, 50)  ( 46,  1, 56)  ( 43,  1, 61)  ( 40,  1, 65)
  0  0.2783E-04  0 -0.1699E-04  0 -0.1012E-04  0 -0.6140E-05  0 -0.4488E-05
   ( 50,  1, 61)  (  1,  1, 69)  (  1,  1, 69)  (  1,  1, 48)  (  1,  1, 52)
  0 -0.3831E-05  0 -0.2727E-05  0 -0.1891E-05  0 -0.1314E-05  0 -0.1084E-05
   (  2,  1, 40)  (  1,  1, 44)  (  6,  1, 29)  (  4,  1,  5)  (  3,  1, 11)
  0 -0.1117E-05  0 -0.1270E-05  0 -0.1156E-05  0 -0.8547E-06  1 -0.2123E-06
   (  1,  1,  5)  (  3,  1,  1)  (  1,  1,  3)  ( 49,  1, 11)  ( 44,  1, 12)

 MAXIMUM RESIDUAL FOR EACH ITERATION (1 INDICATES THE FIRST INNER ITERATION):

    RESIDUAL       RESIDUAL       RESIDUAL       RESIDUAL       RESIDUAL    
   LAYER,ROW,COL  LAYER,ROW,COL  LAYER,ROW,COL  LAYER,ROW,COL  LAYER,ROW,COL
 ---------------------------------------------------------------------------
  1   5.599      0   3.550      0  -1.677      0  -1.019      0 -0.8088    
   ( 50,  1, 44)  ( 50,  1, 37)  ( 49,  1, 36)  ( 50,  1, 56)  ( 50,  1, 35)
  0 -0.4416      0 -0.3101      0  0.1671      0  0.9460E-01  0  0.6944E-01
   ( 49,  1, 45)  ( 49,  1, 41)  ( 50,  1, 35)  ( 49,  1, 46)  ( 49,  1, 41)
  0 -0.4146E-01  0 -0.3701E-01  0 -0.3025E-01  0  0.2411E-01  0  0.1777E-01
   ( 38,  1,  2)  ( 49,  1, 45)  ( 44,  1,  2)  ( 42,  1,  2)  ( 44,  1,  2)
  0  0.1953E-01  0 -0.1657E-01  0  0.1440E-01  0  0.1438E-01  1 -0.7421E-02
   (  1,  1, 99)  (  2,  1, 99)  (  2,  1, 97)  ( 44,  1,  2)  (  1,  1, 99)


 FLOW MODEL IS TRANSIENT
 FLOW MODEL CONTAINS CONSTANT-HEAD CELLS


 MAXIMUM STEPSIZE DURING WHICH ANY PARTICLE CANNOT MOVE MORE THAN ONE CELL
 =  9.754    (WHEN MIN. R.F.=1)  AT K=   1, I=   1, J=  99

 MAXIMUM STEPSIZE WHICH MEETS STABILITY CRITERION OF THE ADVECTION TERM
 (FOR PURE FINITE-DIFFERENCE OPTION, MIXELM=0) 
 =  9.507    (WHEN MIN. R.F.=1)  AT K=   1, I=   1, J=  99


 TOTAL NUMBER OF POINT SOURCES/SINKS PRESENT IN THE FLOW MODEL =       100

 MAXIMUM STEPSIZE WHICH MEETS STABILITY CRITERION OF THE SINK & SOURCE TERM
 =  122.8    (WHEN MIN. R.F.=1)  AT K=   1, I=   1, J=   1

 MAXIMUM STEPSIZE WHICH MEETS STABILITY CRITERION OF THE DISPERSION TERM
 =  2.171    (WHEN MIN. R.F.=1)  AT K=   1, I=   1, J=  99
     5 CALLS TO GCG PACKAGE FOR TRANSPORT TIME STEP  31 IN FLOW TIME STEP   1 STRESS PERIOD   7
    15 TOTAL ITERATIONS
 
 SOLVING FOR HEAD 


     2 CALLS TO PCG ROUTINE FOR TIME STEP   1 IN STRESS PERIOD    7
    20 TOTAL ITERATIONS

 MAXIMUM HEAD CHANGE FOR EACH ITERATION (1 INDICATES THE FIRST INNER ITERATION):

    HEAD CHANGE    HEAD CHANGE    HEAD CHANGE    HEAD CHANGE    HEAD CHANGE 
   LAYER,ROW,COL  LAYER,ROW,COL  LAYER,ROW,COL  LAYER,ROW,COL  LAYER,ROW,COL
 ---------------------------------------------------------------------------
  1  0.7554E-03  0  0.2258E-03  0  0.1236E-03  0  0.7046E-04  0  0.4989E-04
   ( 50,  1, 42)  ( 48,  1, 50)  ( 46,  1, 56)  ( 43,  1, 61)  ( 40,  1, 65)
  0  0.2775E-04  0 -0.1706E-04  0 -0.1002E-04  0 -0.6068E-05  0 -0.4475E-05
   ( 50,  1, 61)  (  1,  1, 69)  (  1,  1, 68)  (  1,  1, 48)  (  1,  1, 52)
  0 -0.3772E-05  0 -0.2667E-05  0 -0.1837E-05  0 -0.1262E-05  0 -0.1023E-05
   (  2,  1, 40)  (  1,  1, 44)  (  6,  1, 29)  (  4,  1,  5)  (  3,  1, 11)
  0 -0.1032E-05  0 -0.1175E-05  0 -0.1087E-05  0 -0.7765E-06  1 -0.2005E-06
   (  1,  1,  5)  (  3,  1,  1)  (  1,  1,  3)  ( 49,  1, 11)  ( 44,  1, 12)

 MAXIMUM RESIDUAL FOR EACH ITERATION (1 INDICATES THE FIRST INNER ITERATION):

    RESIDUAL       RESIDUAL       RESIDUAL       RESIDUAL       RESIDUAL    
   LAYER,ROW,COL  LAYER,ROW,COL  LAYER,ROW,COL  LAYER,ROW,COL  LAYER,ROW,COL
 ---------------------------------------------------------------------------
  1   5.584      0   3.540      0  -1.700      0  -1.016      0 -0.8075    
   ( 50,  1, 44)  ( 50,  1, 37)  ( 49,  1, 36)  ( 50,  1, 56)  ( 50,  1, 34)
  0 -0.4404      0 -0.3105      0  0.1663      0  0.9424E-01  0  0.6899E-01
   ( 49,  1, 45)  ( 49,  1, 41)  ( 50,  1, 35)  ( 49,  1, 46)  ( 49,  1, 41)
  0 -0.4116E-01  0 -0.3655E-01  0 -0.2995E-01  0  0.2343E-01  0  0.1675E-01
   ( 38,  1,  2)  ( 49,  1, 45)  ( 44,  1,  2)  ( 42,  1,  2)  ( 44,  1,  2)
  0  0.1810E-01  0 -0.1533E-01  0  0.1331E-01  0  0.1358E-01  1 -0.6926E-02
   (  1,  1, 99)  ( 44,  1,  2)  (  2,  1, 97)  ( 44,  1,  2)  (  1,  1, 99)


 FLOW MODEL IS TRANSIENT
 FLOW MODEL CONTAINS CONSTANT-HEAD CELLS


 MAXIMUM STEPSIZE DURING WHICH ANY PARTICLE CANNOT MOVE MORE THAN ONE CELL
 =  9.756    (WHEN MIN. R.F.=1)  AT K=   1, I=   1, J=  99

 MAXIMUM STEPSIZE WHICH MEETS STABILITY CRITERION OF THE ADVECTION TERM
 (FOR PURE FINITE-DIFFERENCE OPTION, MIXELM=0) 
 =  9.509    (WHEN MIN. R.F.=1)  AT K=   1, I=   1, J=  99


 TOTAL NUMBER OF POINT SOURCES/SINKS PRESENT IN THE FLOW MODEL =       100

 MAXIMUM STEPSIZE WHICH MEETS STABILITY CRITERION OF THE SINK & SOURCE TERM
 =  122.8    (WHEN MIN. R.F.=1)  AT K=   1, I=   1, J=   1

 MAXIMUM STEPSIZE WHICH MEETS STABILITY CRITERION OF THE DISPERSION TERM
 =  2.172    (WHEN MIN. R.F.=1)  AT K=   1, I=   1, J=  99
     5 CALLS TO GCG PACKAGE FOR TRANSPORT TIME STEP  32 IN FLOW TIME STEP   1 STRESS PERIOD   7
    15 TOTAL ITERATIONS
 
 SOLVING FOR HEAD 


     2 CALLS TO PCG ROUTINE FOR TIME STEP   1 IN STRESS PERIOD    7
    20 TOTAL ITERATIONS

 MAXIMUM HEAD CHANGE FOR EACH ITERATION (1 INDICATES THE FIRST INNER ITERATION):

    HEAD CHANGE    HEAD CHANGE    HEAD CHANGE    HEAD CHANGE    HEAD CHANGE 
   LAYER,ROW,COL  LAYER,ROW,COL  LAYER,ROW,COL  LAYER,ROW,COL  LAYER,ROW,COL
 ---------------------------------------------------------------------------
  1  0.7539E-03  0  0.2255E-03  0  0.1233E-03  0  0.7029E-04  0  0.4971E-04
   ( 50,  1, 42)  ( 48,  1, 50)  ( 46,  1, 56)  ( 43,  1, 61)  ( 40,  1, 65)
  0  0.2770E-04  0 -0.1699E-04  0 -0.1005E-04  0 -0.6060E-05  0 -0.4466E-05
   ( 50,  1, 61)  (  1,  1, 70)  (  1,  1, 67)  (  1,  1, 47)  (  1,  1, 52)
  0 -0.3746E-05  0 -0.2647E-05  0 -0.1825E-05  0 -0.1250E-05  0 -0.1010E-05
   (  2,  1, 40)  (  1,  1, 44)  (  6,  1, 28)  (  4,  1,  5)  (  2,  1,  9)
  0 -0.1010E-05  0 -0.1152E-05  0 -0.1069E-05  0 -0.7568E-06  1 -0.1973E-06
   (  1,  1,  5)  (  4,  1,  1)  (  1,  1,  3)  ( 49,  1, 11)  ( 45,  1, 12)

 MAXIMUM RESIDUAL FOR EACH ITERATION (1 INDICATES THE FIRST INNER ITERATION):

    RESIDUAL       RESIDUAL       RESIDUAL       RESIDUAL       RESIDUAL    
   LAYER,ROW,COL  LAYER,ROW,COL  LAYER,ROW,COL  LAYER,ROW,COL  LAYER,ROW,COL
 ---------------------------------------------------------------------------
  1   5.568      0   3.530      0  -1.717      0  -1.011      0 -0.8078    
   ( 50,  1, 44)  ( 50,  1, 37)  ( 49,  1, 36)  ( 50,  1, 56)  ( 50,  1, 34)
  0 -0.4382      0 -0.3102      0  0.1649      0  0.9401E-01  0  0.6865E-01
   ( 49,  1, 45)  ( 49,  1, 41)  ( 50,  1, 35)  ( 49,  1, 46)  ( 49,  1, 41)
  0 -0.4103E-01  0 -0.3637E-01  0 -0.3002E-01  0  0.2338E-01  0  0.1648E-01
   ( 38,  1,  2)  ( 49,  1, 45)  ( 44,  1,  2)  ( 42,  1,  2)  ( 44,  1,  2)
  0  0.1768E-01  0 -0.1507E-01  0  0.1298E-01  0  0.1338E-01  1 -0.6759E-02
   (  1,  1, 99)  ( 44,  1,  2)  (  2,  1, 97)  ( 44,  1,  2)  (  1,  1, 99)


 FLOW MODEL IS TRANSIENT
 FLOW MODEL CONTAINS CONSTANT-HEAD CELLS


 MAXIMUM STEPSIZE DURING WHICH ANY PARTICLE CANNOT MOVE MORE THAN ONE CELL
 =  9.759    (WHEN MIN. R.F.=1)  AT K=   1, I=   1, J=  99

 MAXIMUM STEPSIZE WHICH MEETS STABILITY CRITERION OF THE ADVECTION TERM
 (FOR PURE FINITE-DIFFERENCE OPTION, MIXELM=0) 
 =  9.512    (WHEN MIN. R.F.=1)  AT K=   1, I=   1, J=  99


 TOTAL NUMBER OF POINT SOURCES/SINKS PRESENT IN THE FLOW MODEL =       100

 MAXIMUM STEPSIZE WHICH MEETS STABILITY CRITERION OF THE SINK & SOURCE TERM
 =  122.8    (WHEN MIN. R.F.=1)  AT K=   1, I=   1, J=   1

 MAXIMUM STEPSIZE WHICH MEETS STABILITY CRITERION OF THE DISPERSION TERM
 =  2.173    (WHEN MIN. R.F.=1)  AT K=   1, I=   1, J=  99
     5 CALLS TO GCG PACKAGE FOR TRANSPORT TIME STEP  33 IN FLOW TIME STEP   1 STRESS PERIOD   7
    15 TOTAL ITERATIONS
 
 SOLVING FOR HEAD 


     2 CALLS TO PCG ROUTINE FOR TIME STEP   1 IN STRESS PERIOD    7
    16 TOTAL ITERATIONS

 MAXIMUM HEAD CHANGE FOR EACH ITERATION (1 INDICATES THE FIRST INNER ITERATION):

    HEAD CHANGE    HEAD CHANGE    HEAD CHANGE    HEAD CHANGE    HEAD CHANGE 
   LAYER,ROW,COL  LAYER,ROW,COL  LAYER,ROW,COL  LAYER,ROW,COL  LAYER,ROW,COL
 ---------------------------------------------------------------------------
  1  0.7520E-03  0  0.2248E-03  0  0.1230E-03  0  0.7009E-04  0  0.4962E-04
   ( 50,  1, 42)  ( 48,  1, 50)  ( 46,  1, 56)  ( 43,  1, 61)  ( 40,  1, 65)
  0  0.2758E-04  0 -0.1689E-04  0 -0.1004E-04  0 -0.6025E-05  0 -0.4433E-05
   ( 50,  1, 61)  (  1,  1, 70)  (  1,  1, 68)  (  1,  1, 47)  (  1,  1, 52)
  0 -0.3696E-05  0 -0.2604E-05  0 -0.1787E-05  0 -0.1207E-05  0 -0.9606E-06
   (  2,  1, 40)  (  1,  1, 44)  (  6,  1, 28)  (  4,  1,  5)  (  2,  1,  9)
  1 -0.2682E-06
   (  2,  1, 17)

 MAXIMUM RESIDUAL FOR EACH ITERATION (1 INDICATES THE FIRST INNER ITERATION):

    RESIDUAL       RESIDUAL       RESIDUAL       RESIDUAL       RESIDUAL    
   LAYER,ROW,COL  LAYER,ROW,COL  LAYER,ROW,COL  LAYER,ROW,COL  LAYER,ROW,COL
 ---------------------------------------------------------------------------
  1   5.547      0   3.513      0  -1.730      0  -1.008      0 -0.8090    
   ( 50,  1, 44)  ( 50,  1, 37)  ( 49,  1, 36)  ( 50,  1, 56)  ( 50,  1, 34)
  0 -0.4385      0 -0.3093      0  0.1633      0  0.9372E-01  0  0.6834E-01
   ( 49,  1, 45)  ( 49,  1, 41)  ( 50,  1, 35)  ( 49,  1, 45)  ( 49,  1, 41)
  0 -0.4073E-01  0 -0.3593E-01  0 -0.2976E-01  0  0.2281E-01  0  0.1567E-01
   ( 38,  1,  2)  ( 49,  1, 44)  ( 44,  1,  2)  ( 42,  1,  2)  ( 44,  1,  2)
  1  0.5990E-02
   (  1,  1, 98)


 FLOW MODEL IS TRANSIENT
 FLOW MODEL CONTAINS CONSTANT-HEAD CELLS


 MAXIMUM STEPSIZE DURING WHICH ANY PARTICLE CANNOT MOVE MORE THAN ONE CELL
 =  9.762    (WHEN MIN. R.F.=1)  AT K=   1, I=   1, J=  99

 MAXIMUM STEPSIZE WHICH MEETS STABILITY CRITERION OF THE ADVECTION TERM
 (FOR PURE FINITE-DIFFERENCE OPTION, MIXELM=0) 
 =  9.515    (WHEN MIN. R.F.=1)  AT K=   1, I=   1, J=  99


 TOTAL NUMBER OF POINT SOURCES/SINKS PRESENT IN THE FLOW MODEL =       100

 MAXIMUM STEPSIZE WHICH MEETS STABILITY CRITERION OF THE SINK & SOURCE TERM
 =  122.8    (WHEN MIN. R.F.=1)  AT K=   1, I=   1, J=   1

 MAXIMUM STEPSIZE WHICH MEETS STABILITY CRITERION OF THE DISPERSION TERM
 =  2.173    (WHEN MIN. R.F.=1)  AT K=   1, I=   1, J=  99
     5 CALLS TO GCG PACKAGE FOR TRANSPORT TIME STEP  34 IN FLOW TIME STEP   1 STRESS PERIOD   7
    15 TOTAL ITERATIONS
 
 SOLVING FOR HEAD 


     2 CALLS TO PCG ROUTINE FOR TIME STEP   1 IN STRESS PERIOD    7
    20 TOTAL ITERATIONS

 MAXIMUM HEAD CHANGE FOR EACH ITERATION (1 INDICATES THE FIRST INNER ITERATION):

    HEAD CHANGE    HEAD CHANGE    HEAD CHANGE    HEAD CHANGE    HEAD CHANGE 
   LAYER,ROW,COL  LAYER,ROW,COL  LAYER,ROW,COL  LAYER,ROW,COL  LAYER,ROW,COL
 ---------------------------------------------------------------------------
  1  0.7498E-03  0  0.2238E-03  0  0.1228E-03  0  0.7006E-04  0  0.4972E-04
   ( 50,  1, 42)  ( 48,  1, 50)  ( 46,  1, 56)  ( 43,  1, 60)  ( 40,  1, 64)
  0  0.2746E-04  0 -0.1688E-04  0 -0.1003E-04  0 -0.5976E-05  0 -0.4525E-05
   ( 50,  1, 61)  (  1,  1, 69)  (  1,  1, 67)  (  1,  1, 47)  (  1,  1, 51)
  0 -0.3811E-05  0 -0.2745E-05  0 -0.1915E-05  0 -0.1310E-05  0 -0.1104E-05
   (  2,  1, 39)  (  1,  1, 43)  (  6,  1, 28)  (  4,  1,  5)  (  2,  1,  9)
  0 -0.1148E-05  0 -0.1283E-05  0 -0.1157E-05  0 -0.8767E-06  1 -0.2129E-06
   (  7,  1,  1)  (  3,  1,  1)  (  1,  1,  4)  ( 49,  1, 11)  ( 45,  1, 12)

 MAXIMUM RESIDUAL FOR EACH ITERATION (1 INDICATES THE FIRST INNER ITERATION):

    RESIDUAL       RESIDUAL       RESIDUAL       RESIDUAL       RESIDUAL    
   LAYER,ROW,COL  LAYER,ROW,COL  LAYER,ROW,COL  LAYER,ROW,COL  LAYER,ROW,COL
 ---------------------------------------------------------------------------
  1   5.529      0   3.496      0  -1.738      0  -1.006      0 -0.8110    
   ( 50,  1, 44)  ( 50,  1, 37)  ( 49,  1, 36)  ( 50,  1, 56)  ( 50,  1, 34)
  0 -0.4391      0 -0.3093      0  0.1659      0  0.9459E-01  0  0.6929E-01
   ( 49,  1, 45)  ( 49,  1, 41)  ( 50,  1, 34)  ( 49,  1, 45)  ( 49,  1, 41)
  0 -0.4143E-01  0 -0.3709E-01  0 -0.3121E-01  0  0.2502E-01  0  0.1733E-01
   ( 38,  1,  2)  ( 49,  1, 44)  ( 44,  1,  2)  ( 42,  1,  2)  ( 44,  1,  2)
  0  0.1963E-01  0 -0.1696E-01  0  0.1418E-01  0  0.1470E-01  1 -0.7379E-02
   (  1,  1, 99)  ( 44,  1,  2)  (  2,  1, 97)  ( 44,  1,  2)  (  1,  1, 99)


 FLOW MODEL IS TRANSIENT
 FLOW MODEL CONTAINS CONSTANT-HEAD CELLS


 MAXIMUM STEPSIZE DURING WHICH ANY PARTICLE CANNOT MOVE MORE THAN ONE CELL
 =  9.765    (WHEN MIN. R.F.=1)  AT K=   1, I=   1, J=  99

 MAXIMUM STEPSIZE WHICH MEETS STABILITY CRITERION OF THE ADVECTION TERM
 (FOR PURE FINITE-DIFFERENCE OPTION, MIXELM=0) 
 =  9.518    (WHEN MIN. R.F.=1)  AT K=   1, I=   1, J=  99


 TOTAL NUMBER OF POINT SOURCES/SINKS PRESENT IN THE FLOW MODEL =       100

 MAXIMUM STEPSIZE WHICH MEETS STABILITY CRITERION OF THE SINK & SOURCE TERM
 =  122.8    (WHEN MIN. R.F.=1)  AT K=   1, I=   1, J=   1

 MAXIMUM STEPSIZE WHICH MEETS STABILITY CRITERION OF THE DISPERSION TERM
 =  2.174    (WHEN MIN. R.F.=1)  AT K=   1, I=   1, J=  99
     5 CALLS TO GCG PACKAGE FOR TRANSPORT TIME STEP  35 IN FLOW TIME STEP   1 STRESS PERIOD   7
    15 TOTAL ITERATIONS
 
 SOLVING FOR HEAD 


     2 CALLS TO PCG ROUTINE FOR TIME STEP   1 IN STRESS PERIOD    7
    16 TOTAL ITERATIONS

 MAXIMUM HEAD CHANGE FOR EACH ITERATION (1 INDICATES THE FIRST INNER ITERATION):

    HEAD CHANGE    HEAD CHANGE    HEAD CHANGE    HEAD CHANGE    HEAD CHANGE 
   LAYER,ROW,COL  LAYER,ROW,COL  LAYER,ROW,COL  LAYER,ROW,COL  LAYER,ROW,COL
 ---------------------------------------------------------------------------
  1  0.7477E-03  0  0.2231E-03  0  0.1223E-03  0  0.6979E-04  0  0.4952E-04
   ( 50,  1, 42)  ( 48,  1, 50)  ( 46,  1, 56)  ( 43,  1, 61)  ( 40,  1, 64)
  0  0.2738E-04  0 -0.1673E-04  0 -0.1007E-04  0 -0.6002E-05  0 -0.4414E-05
   ( 50,  1, 61)  (  1,  1, 69)  (  1,  1, 68)  (  1,  1, 47)  (  1,  1, 52)
  0 -0.3677E-05  0 -0.2614E-05  0 -0.1812E-05  0 -0.1232E-05  0 -0.9847E-06
   (  2,  1, 39)  (  1,  1, 43)  (  6,  1, 28)  (  5,  1,  6)  (  2,  1,  9)
  1 -0.2733E-06
   (  2,  1, 16)

 MAXIMUM RESIDUAL FOR EACH ITERATION (1 INDICATES THE FIRST INNER ITERATION):

    RESIDUAL       RESIDUAL       RESIDUAL       RESIDUAL       RESIDUAL    
   LAYER,ROW,COL  LAYER,ROW,COL  LAYER,ROW,COL  LAYER,ROW,COL  LAYER,ROW,COL
 ---------------------------------------------------------------------------
  1   5.513      0   3.469      0  -1.735      0  -1.003      0 -0.8097    
   ( 50,  1, 43)  ( 50,  1, 37)  ( 49,  1, 36)  ( 50,  1, 56)  ( 50,  1, 34)
  0 -0.4371      0 -0.3085      0  0.1646      0  0.9360E-01  0  0.6763E-01
   ( 49,  1, 45)  ( 49,  1, 41)  ( 50,  1, 34)  ( 49,  1, 45)  ( 49,  1, 41)
  0 -0.4055E-01  0 -0.3613E-01  0 -0.3014E-01  0  0.2332E-01  0  0.1580E-01
   ( 38,  1,  2)  ( 49,  1, 44)  ( 44,  1,  2)  ( 42,  1,  2)  ( 44,  1,  2)
  1  0.6033E-02
   (  1,  1, 98)


 FLOW MODEL IS TRANSIENT
 FLOW MODEL CONTAINS CONSTANT-HEAD CELLS


 MAXIMUM STEPSIZE DURING WHICH ANY PARTICLE CANNOT MOVE MORE THAN ONE CELL
 =  9.768    (WHEN MIN. R.F.=1)  AT K=   1, I=   1, J=  99

 MAXIMUM STEPSIZE WHICH MEETS STABILITY CRITERION OF THE ADVECTION TERM
 (FOR PURE FINITE-DIFFERENCE OPTION, MIXELM=0) 
 =  9.520    (WHEN MIN. R.F.=1)  AT K=   1, I=   1, J=  99


 TOTAL NUMBER OF POINT SOURCES/SINKS PRESENT IN THE FLOW MODEL =       100

 MAXIMUM STEPSIZE WHICH MEETS STABILITY CRITERION OF THE SINK & SOURCE TERM
 =  122.8    (WHEN MIN. R.F.=1)  AT K=   1, I=   1, J=   1

 MAXIMUM STEPSIZE WHICH MEETS STABILITY CRITERION OF THE DISPERSION TERM
 =  2.174    (WHEN MIN. R.F.=1)  AT K=   1, I=   1, J=  99
     5 CALLS TO GCG PACKAGE FOR TRANSPORT TIME STEP  36 IN FLOW TIME STEP   1 STRESS PERIOD   7
    15 TOTAL ITERATIONS
 
 SOLVING FOR HEAD 


     2 CALLS TO PCG ROUTINE FOR TIME STEP   1 IN STRESS PERIOD    7
    20 TOTAL ITERATIONS

 MAXIMUM HEAD CHANGE FOR EACH ITERATION (1 INDICATES THE FIRST INNER ITERATION):

    HEAD CHANGE    HEAD CHANGE    HEAD CHANGE    HEAD CHANGE    HEAD CHANGE 
   LAYER,ROW,COL  LAYER,ROW,COL  LAYER,ROW,COL  LAYER,ROW,COL  LAYER,ROW,COL
 ---------------------------------------------------------------------------
  1  0.7452E-03  0  0.2221E-03  0  0.1220E-03  0  0.6964E-04  0  0.4945E-04
   ( 50,  1, 42)  ( 48,  1, 50)  ( 46,  1, 55)  ( 43,  1, 60)  ( 40,  1, 64)
  0  0.2726E-04  0 -0.1679E-04  0 -0.1001E-04  0 -0.5926E-05  0 -0.4497E-05
   ( 50,  1, 61)  (  1,  1, 69)  (  1,  1, 67)  (  1,  1, 47)  (  1,  1, 51)
  0 -0.3780E-05  0 -0.2728E-05  0 -0.1896E-05  0 -0.1289E-05  0 -0.1079E-05
   (  2,  1, 39)  (  1,  1, 43)  (  6,  1, 28)  (  4,  1,  5)  (  2,  1,  9)
  0 -0.1117E-05  0 -0.1248E-05  0 -0.1133E-05  0 -0.8491E-06  1 -0.2100E-06
   (  7,  1,  1)  (  3,  1,  1)  (  1,  1,  4)  ( 49,  1, 11)  ( 45,  1, 12)

 MAXIMUM RESIDUAL FOR EACH ITERATION (1 INDICATES THE FIRST INNER ITERATION):

    RESIDUAL       RESIDUAL       RESIDUAL       RESIDUAL       RESIDUAL    
   LAYER,ROW,COL  LAYER,ROW,COL  LAYER,ROW,COL  LAYER,ROW,COL  LAYER,ROW,COL
 ---------------------------------------------------------------------------
  1   5.508      0   3.451      0  -1.729      0  -1.001      0 -0.8084    
   ( 50,  1, 43)  ( 50,  1, 36)  ( 49,  1, 36)  ( 50,  1, 56)  ( 50,  1, 34)
  0 -0.4363      0 -0.3092      0  0.1678      0  0.9415E-01  0  0.6850E-01
   ( 49,  1, 45)  ( 49,  1, 41)  ( 50,  1, 34)  ( 49,  1, 45)  ( 49,  1, 41)
  0 -0.4114E-01  0 -0.3699E-01  0 -0.3114E-01  0  0.2484E-01  0  0.1678E-01
   ( 38,  1,  2)  ( 49,  1, 44)  ( 44,  1,  2)  ( 42,  1,  2)  ( 44,  1,  2)
  0  0.1889E-01  0 -0.1659E-01  0  0.1383E-01  0  0.1441E-01  1 -0.7120E-02
   (  1,  1, 99)  ( 44,  1,  2)  ( 42,  1,  2)  ( 44,  1,  2)  (  1,  1, 99)


 FLOW MODEL IS TRANSIENT
 FLOW MODEL CONTAINS CONSTANT-HEAD CELLS


 MAXIMUM STEPSIZE DURING WHICH ANY PARTICLE CANNOT MOVE MORE THAN ONE CELL
 =  9.771    (WHEN MIN. R.F.=1)  AT K=   1, I=   1, J=  99

 MAXIMUM STEPSIZE WHICH MEETS STABILITY CRITERION OF THE ADVECTION TERM
 (FOR PURE FINITE-DIFFERENCE OPTION, MIXELM=0) 
 =  9.523    (WHEN MIN. R.F.=1)  AT K=   1, I=   1, J=  99


 TOTAL NUMBER OF POINT SOURCES/SINKS PRESENT IN THE FLOW MODEL =       100

 MAXIMUM STEPSIZE WHICH MEETS STABILITY CRITERION OF THE SINK & SOURCE TERM
 =  122.8    (WHEN MIN. R.F.=1)  AT K=   1, I=   1, J=   1

 MAXIMUM STEPSIZE WHICH MEETS STABILITY CRITERION OF THE DISPERSION TERM
 =  2.175    (WHEN MIN. R.F.=1)  AT K=   1, I=   1, J=  99
     5 CALLS TO GCG PACKAGE FOR TRANSPORT TIME STEP  37 IN FLOW TIME STEP   1 STRESS PERIOD   7
    15 TOTAL ITERATIONS
 
 SOLVING FOR HEAD 


     2 CALLS TO PCG ROUTINE FOR TIME STEP   1 IN STRESS PERIOD    7
    20 TOTAL ITERATIONS

 MAXIMUM HEAD CHANGE FOR EACH ITERATION (1 INDICATES THE FIRST INNER ITERATION):

    HEAD CHANGE    HEAD CHANGE    HEAD CHANGE    HEAD CHANGE    HEAD CHANGE 
   LAYER,ROW,COL  LAYER,ROW,COL  LAYER,ROW,COL  LAYER,ROW,COL  LAYER,ROW,COL
 ---------------------------------------------------------------------------
  1  0.7427E-03  0  0.2212E-03  0  0.1215E-03  0  0.6931E-04  0  0.4924E-04
   ( 50,  1, 42)  ( 48,  1, 50)  ( 46,  1, 55)  ( 43,  1, 60)  ( 40,  1, 64)
  0  0.2719E-04  0 -0.1673E-04  0 -0.1012E-04  0 -0.6024E-05  0 -0.4471E-05
   ( 50,  1, 60)  (  1,  1, 70)  (  1,  1, 68)  (  1,  1, 47)  (  1,  1, 51)
  0 -0.3784E-05  0 -0.2743E-05  0 -0.1957E-05  0 -0.1379E-05  0 -0.1156E-05
   (  2,  1, 39)  (  1,  1, 43)  (  6,  1, 28)  (  5,  1,  6)  (  2,  1,  9)
  0 -0.1194E-05  0 -0.1364E-05  0 -0.1218E-05  0 -0.9329E-06  1 -0.2198E-06
   (  1,  1, 14)  (  3,  1,  1)  (  1,  1,  4)  ( 49,  1, 11)  ( 45,  1, 12)

 MAXIMUM RESIDUAL FOR EACH ITERATION (1 INDICATES THE FIRST INNER ITERATION):

    RESIDUAL       RESIDUAL       RESIDUAL       RESIDUAL       RESIDUAL    
   LAYER,ROW,COL  LAYER,ROW,COL  LAYER,ROW,COL  LAYER,ROW,COL  LAYER,ROW,COL
 ---------------------------------------------------------------------------
  1   5.500      0   3.460      0  -1.716      0  -1.002      0 -0.8067    
   ( 50,  1, 43)  ( 50,  1, 36)  ( 49,  1, 36)  ( 50,  1, 55)  ( 50,  1, 34)
  0 -0.4359      0 -0.3081      0  0.1667      0  0.9399E-01  0  0.6818E-01
   ( 49,  1, 44)  ( 49,  1, 41)  ( 50,  1, 34)  ( 49,  1, 45)  ( 49,  1, 40)
  0  0.4128E-01  0 -0.3727E-01  0 -0.3162E-01  0  0.2590E-01  0  0.1799E-01
   ( 41,  1,  1)  ( 49,  1, 44)  ( 44,  1,  2)  ( 42,  1,  2)  ( 44,  1,  2)
  0  0.2014E-01  0 -0.1796E-01  0  0.1486E-01  0  0.1536E-01  1 -0.7612E-02
   (  1,  1, 99)  ( 44,  1,  2)  ( 42,  1,  2)  ( 44,  1,  2)  (  1,  1, 99)


 FLOW MODEL IS TRANSIENT
 FLOW MODEL CONTAINS CONSTANT-HEAD CELLS


 MAXIMUM STEPSIZE DURING WHICH ANY PARTICLE CANNOT MOVE MORE THAN ONE CELL
 =  9.774    (WHEN MIN. R.F.=1)  AT K=   1, I=   1, J=  99

 MAXIMUM STEPSIZE WHICH MEETS STABILITY CRITERION OF THE ADVECTION TERM
 (FOR PURE FINITE-DIFFERENCE OPTION, MIXELM=0) 
 =  9.526    (WHEN MIN. R.F.=1)  AT K=   1, I=   1, J=  99


 TOTAL NUMBER OF POINT SOURCES/SINKS PRESENT IN THE FLOW MODEL =       100

 MAXIMUM STEPSIZE WHICH MEETS STABILITY CRITERION OF THE SINK & SOURCE TERM
 =  122.8    (WHEN MIN. R.F.=1)  AT K=   1, I=   1, J=   1

 MAXIMUM STEPSIZE WHICH MEETS STABILITY CRITERION OF THE DISPERSION TERM
 =  2.176    (WHEN MIN. R.F.=1)  AT K=   1, I=   1, J=  99
     5 CALLS TO GCG PACKAGE FOR TRANSPORT TIME STEP  38 IN FLOW TIME STEP   1 STRESS PERIOD   7
    15 TOTAL ITERATIONS
 
 SOLVING FOR HEAD 


     2 CALLS TO PCG ROUTINE FOR TIME STEP   1 IN STRESS PERIOD    7
    15 TOTAL ITERATIONS

 MAXIMUM HEAD CHANGE FOR EACH ITERATION (1 INDICATES THE FIRST INNER ITERATION):

    HEAD CHANGE    HEAD CHANGE    HEAD CHANGE    HEAD CHANGE    HEAD CHANGE 
   LAYER,ROW,COL  LAYER,ROW,COL  LAYER,ROW,COL  LAYER,ROW,COL  LAYER,ROW,COL
 ---------------------------------------------------------------------------
  1  0.7240E-03  0  0.2082E-03  0  0.1077E-03  0  0.5889E-04  0  0.3979E-04
   ( 50,  1, 41)  ( 48,  1, 49)  ( 46,  1, 55)  ( 43,  1, 60)  ( 40,  1, 64)
  0  0.2091E-04  0 -0.1236E-04  0 -0.7324E-05  0 -0.4128E-05  0 -0.3058E-05
   ( 50,  1, 60)  (  1,  1, 70)  (  1,  1, 67)  (  1,  1, 47)  (  1,  1, 51)
  0 -0.2424E-05  0 -0.1758E-05  0 -0.1185E-05  0 -0.8109E-06  1 -0.2603E-06
   (  2,  1, 39)  (  1,  1, 43)  (  7,  1, 29)  (  5,  1,  6)  (  4,  1, 11)

 MAXIMUM RESIDUAL FOR EACH ITERATION (1 INDICATES THE FIRST INNER ITERATION):

    RESIDUAL       RESIDUAL       RESIDUAL       RESIDUAL       RESIDUAL    
   LAYER,ROW,COL  LAYER,ROW,COL  LAYER,ROW,COL  LAYER,ROW,COL  LAYER,ROW,COL
 ---------------------------------------------------------------------------
  1   5.378      0   3.301      0  -1.538      0 -0.8726      0 -0.6687    
   ( 50,  1, 43)  ( 50,  1, 36)  ( 49,  1, 36)  ( 50,  1, 55)  ( 50,  1, 34)
  0 -0.3535      0 -0.2392      0  0.1236      0  0.6898E-01  0  0.4739E-01
   ( 49,  1, 44)  ( 49,  1, 41)  ( 50,  1, 34)  ( 49,  1, 45)  ( 49,  1, 40)
  0  0.2752E-01  0 -0.2372E-01  0 -0.1949E-01  0  0.1643E-01  1  0.3911E-02
   ( 41,  1,  1)  ( 49,  1, 44)  ( 44,  1,  2)  ( 42,  1,  2)  ( 38,  1,  3)


 FLOW MODEL IS TRANSIENT
 FLOW MODEL CONTAINS CONSTANT-HEAD CELLS


 MAXIMUM STEPSIZE DURING WHICH ANY PARTICLE CANNOT MOVE MORE THAN ONE CELL
 =  9.776    (WHEN MIN. R.F.=1)  AT K=   1, I=   1, J=  99

 MAXIMUM STEPSIZE WHICH MEETS STABILITY CRITERION OF THE ADVECTION TERM
 (FOR PURE FINITE-DIFFERENCE OPTION, MIXELM=0) 
 =  9.528    (WHEN MIN. R.F.=1)  AT K=   1, I=   1, J=  99


 TOTAL NUMBER OF POINT SOURCES/SINKS PRESENT IN THE FLOW MODEL =       100

 MAXIMUM STEPSIZE WHICH MEETS STABILITY CRITERION OF THE SINK & SOURCE TERM
 =  122.8    (WHEN MIN. R.F.=1)  AT K=   1, I=   1, J=   1

 MAXIMUM STEPSIZE WHICH MEETS STABILITY CRITERION OF THE DISPERSION TERM
 =  2.176    (WHEN MIN. R.F.=1)  AT K=   1, I=   1, J=  99
     4 CALLS TO GCG PACKAGE FOR TRANSPORT TIME STEP  39 IN FLOW TIME STEP   1 STRESS PERIOD   7
    10 TOTAL ITERATIONS
  MAXIMUM CONCENTRATION CHANGES FOR EACH ITERATION:
  MAX. CHANGE LAYER,ROW,COL MAX. CHANGE LAYER,ROW,COL MAX. CHANGE LAYER,ROW,COL MAX. CHANGE LAYER,ROW,COL MAX. CHANGE LAYER,ROW,COL
 ------------------------------------------------------------------------------------------------------------------------------------
   0.1142     (  1,  1, 99)  0.1005E-02 (  1,  1, 99)  0.1514E-04 (  1,  1, 99)  0.3874E-06 (  2,  1, 96)  0.1119E-02 (  1,  1, 97)
   0.2915E-04 (  1,  1, 98)  0.4768E-06 (  2,  1, 97)  0.3487E-04 ( 11,  1, 98)  0.6855E-06 (  2,  1, 97)   0.000     (  1,  1,  1)



 >>>>>>>>>>>>>>>>>>>>>>>>>>>>>>>>>>>>>>>>>>>>>>>>>>>>>>>FOR COMPONENT NO. 01<<<<<<<<<<<<<<<<<<<<<<<<<<<<<<<<<<<<<<<<<<<<<<<<<<<<<<<


                                            -------------------------------------------
                                                      TRANSPORT STEP NO.   39
                                            -------------------------------------------

 TOTAL ELAPSED TIME SINCE BEGINNING OF SIMULATION =   2556.000       D
 .....................................................................

                     CUMMULATIVE MASS BUDGETS AT END OF TRANSPORT STEP   39, TIME STEP    1, STRESS PERIOD    7
                     ------------------------------------------------------------------------------------------

                                                             IN                           OUT
                                                      ----------------             ----------------
                               CONSTANT CONCENTRATION:    3130406.                   -1782899.    
                                        CONSTANT HEAD:    0.000000                    0.000000    
                                                WELLS:    0.000000                    0.000000    
                               MASS STOR (FLOW MODEL):    126.1389                   -2332.645    
                                MASS STORAGE (SOLUTE):    1126.550                   -1346428.    
                            ---------------------------------------------------------------------------
                                              [TOTAL]:    3131658.        K          -3131660.        K

                                                          NET (IN - OUT):   -2.000000    
                                                   DISCREPANCY (PERCENT):  -0.6386391E-04

 HEAD WILL BE SAVED ON UNIT   99 AT END OF TIME STEP   1, STRESS PERIOD    7
1
  MASS BUDGET FOR ENTIRE MODEL AT END OF TIME STEP  1 IN STRESS PERIOD   7
  ------------------------------------------------------------------------------

     CUMULATIVE MASS      M       RATES FOR THIS TIME STEP      M/T
     ------------------                 ------------------------

           IN:                                      IN:
           ---                                      ---
             STORAGE =       86119.9922               STORAGE =          45.1221
       CONSTANT HEAD =    41180020.0000         CONSTANT HEAD =        9277.6484
               WELLS =    36438328.0000                 WELLS =       14256.0000
                DCDT =        2070.0376                  DCDT =       1.0319E-02

            TOTAL IN =    77706536.0000              TOTAL IN =       23578.7832

          OUT:                                     OUT:
          ----                                     ----
             STORAGE =     3978128.5000               STORAGE =          47.0069
       CONSTANT HEAD =    72639440.0000         CONSTANT HEAD =       23353.9238
               WELLS =           0.0000                 WELLS =           0.0000
                DCDT =     1090308.0000                  DCDT =         179.7248

           TOTAL OUT =    77707872.0000             TOTAL OUT =       23580.6562

            IN - OUT =       -1336.0000              IN - OUT =          -1.8730

 PERCENT DISCREPANCY =          -0.00     PERCENT DISCREPANCY =          -0.01



0


          TIME SUMMARY AT END OF TRANSPORT STEP   39 IN TIME STEP    1 IN STRESS PERIOD   7
                    SECONDS     MINUTES      HOURS       DAYS        YEARS
                    -----------------------------------------------------------
  TRANS STEP LENGTH 4.44066E+05  7401.1      123.35      5.1396     1.40716E-02
   TIME STEP LENGTH 3.15360E+07 5.25600E+05  8760.0      365.00     0.99932    
 STRESS PERIOD TIME 3.15360E+07 5.25600E+05  8760.0      365.00     0.99932    
         TOTAL TIME 2.20838E+08 3.68064E+06  61344.      2556.0      6.9979    
1


                                   ++++++++++++++++++++++++++++++++++++++++++++++++++++++++++++++
                                                       STRESS PERIOD NO.  008
                                   ++++++++++++++++++++++++++++++++++++++++++++++++++++++++++++++


 LENGTH OF CURRENT STRESS PERIOD =   366.0000    
 NUMBER OF TIME STEPS FOR CURRENT STRESS PERIOD =    1
 TIME STEP MULTIPLIER USED IN FLOW SOLUTION =   1.000000    
 USER-SPECIFIED TRANSPORT STEPSIZE =   0.000000       D
 MAXIMUM NUMBER OF TRANSPORT STEPS ALLOWED  IN ONE FLOW TIME STEP =     50000
 MULTIPLIER FOR SUCCESSIVE TRANSPORT STEPS  [USED IN IMPLICIT SCHEMES] =     1.000
 MAXIMUM TRANSPORT STEP SIZE  [USED IN IMPLICIT SCHEMES] =   0.000000       D
1
                            STRESS PERIOD NO.    8, LENGTH =   366.0000    
                            -----------------------------------------------

                              NUMBER OF TIME STEPS =     1

                               MULTIPLIER FOR DELT =     1.000

                            INITIAL TIME STEP SIZE =   366.0000    

 NO. OF POINT SINKS/SOURCES OF SPECIFIED CONCONCENTRATIONS =    0 IN STRESS PERIOD  8

 WELL NO.  LAYER   ROW   COL   STRESS RATE         NOPRINT         
 ------------------------------------------------------------------

     50 WELLS


                                          ================================================
                                                         FROM TIME =   2556.0     TO    2922.0    

 
 SOLVING FOR HEAD 


     2 CALLS TO PCG ROUTINE FOR TIME STEP   1 IN STRESS PERIOD    8
    15 TOTAL ITERATIONS

 MAXIMUM HEAD CHANGE FOR EACH ITERATION (1 INDICATES THE FIRST INNER ITERATION):

    HEAD CHANGE    HEAD CHANGE    HEAD CHANGE    HEAD CHANGE    HEAD CHANGE 
   LAYER,ROW,COL  LAYER,ROW,COL  LAYER,ROW,COL  LAYER,ROW,COL  LAYER,ROW,COL
 ---------------------------------------------------------------------------
  1  0.4038E-03  0  0.1334E-03  0  0.8314E-04  0  0.4767E-04  0  0.3229E-04
   ( 50,  1, 42)  ( 49,  1, 50)  ( 47,  1, 56)  ( 44,  1, 61)  ( 40,  1, 63)
  0 -0.2374E-04  0 -0.1555E-04  0 -0.7267E-05  0 -0.4410E-05  0 -0.2858E-05
   (  4,  1, 72)  (  5,  1, 66)  (  1,  1, 71)  (  5,  1, 48)  (  1,  1, 55)
  0 -0.2123E-05  0 -0.1972E-05  0 -0.1324E-05  0 -0.8888E-06  1 -0.2393E-06
   (  4,  1, 27)  (  1,  1, 41)  (  2,  1, 33)  (  5,  1,  5)  (  1,  1,  9)

 MAXIMUM RESIDUAL FOR EACH ITERATION (1 INDICATES THE FIRST INNER ITERATION):

    RESIDUAL       RESIDUAL       RESIDUAL       RESIDUAL       RESIDUAL    
   LAYER,ROW,COL  LAYER,ROW,COL  LAYER,ROW,COL  LAYER,ROW,COL  LAYER,ROW,COL
 ---------------------------------------------------------------------------
  1   5.784      0   4.044      0   2.997      0   2.169      0   1.742    
   (  2,  1, 99)  (  1,  1, 98)  (  1,  1, 99)  (  2,  1, 97)  (  2,  1, 98)
  0  0.8889      0 -0.5635      0 -0.3367      0  0.1845      0 -0.1123    
   (  2,  1, 99)  (  2,  1, 97)  (  2,  1, 98)  (  3,  1, 98)  (  3,  1, 97)
  0 -0.8154E-01  0 -0.6309E-01  0 -0.3943E-01  0 -0.2175E-01  1 -0.8779E-02
   (  3,  1, 98)  (  3,  1, 98)  (  4,  1, 96)  (  4,  1, 97)  (  4,  1, 97)


 FLOW MODEL IS TRANSIENT
 FLOW MODEL CONTAINS CONSTANT-HEAD CELLS


 MAXIMUM STEPSIZE DURING WHICH ANY PARTICLE CANNOT MOVE MORE THAN ONE CELL
 =  9.752    (WHEN MIN. R.F.=1)  AT K=   1, I=   1, J=  99

 MAXIMUM STEPSIZE WHICH MEETS STABILITY CRITERION OF THE ADVECTION TERM
 (FOR PURE FINITE-DIFFERENCE OPTION, MIXELM=0) 
 =  9.497    (WHEN MIN. R.F.=1)  AT K=   1, I=   1, J=  99


 TOTAL NUMBER OF POINT SOURCES/SINKS PRESENT IN THE FLOW MODEL =       100

 MAXIMUM STEPSIZE WHICH MEETS STABILITY CRITERION OF THE SINK & SOURCE TERM
 =  122.8    (WHEN MIN. R.F.=1)  AT K=   1, I=   1, J=   1

 MAXIMUM STEPSIZE WHICH MEETS STABILITY CRITERION OF THE DISPERSION TERM
 =  2.169    (WHEN MIN. R.F.=1)  AT K=   1, I=   1, J=  99


     5 CALLS TO GCG PACKAGE FOR TRANSPORT TIME STEP   1 IN FLOW TIME STEP   1 STRESS PERIOD   8
    15 TOTAL ITERATIONS

 OUTPUT CONTROL FOR STRESS PERIOD    8   TIME STEP   1
    SAVE HEAD FOR ALL LAYERS
    SAVE BUDGET FOR ALL LAYERS
    SAVE BUDGET
 
 SOLVING FOR HEAD 


     2 CALLS TO PCG ROUTINE FOR TIME STEP   1 IN STRESS PERIOD    8
    16 TOTAL ITERATIONS

 MAXIMUM HEAD CHANGE FOR EACH ITERATION (1 INDICATES THE FIRST INNER ITERATION):

    HEAD CHANGE    HEAD CHANGE    HEAD CHANGE    HEAD CHANGE    HEAD CHANGE 
   LAYER,ROW,COL  LAYER,ROW,COL  LAYER,ROW,COL  LAYER,ROW,COL  LAYER,ROW,COL
 ---------------------------------------------------------------------------
  1  0.7233E-03  0  0.2136E-03  0  0.1184E-03  0  0.6751E-04  0  0.4803E-04
   ( 50,  1, 41)  ( 48,  1, 49)  ( 46,  1, 55)  ( 43,  1, 60)  ( 40,  1, 64)
  0  0.2599E-04  0 -0.1871E-04  0 -0.1210E-04  0 -0.5908E-05  0 -0.4744E-05
   ( 50,  1, 60)  (  1,  1, 70)  (  3,  1, 66)  (  1,  1, 45)  (  1,  1, 50)
  0 -0.3662E-05  0 -0.2502E-05  0 -0.1832E-05  0 -0.1185E-05  0 -0.9953E-06
   (  2,  1, 40)  (  3,  1, 31)  (  7,  1, 30)  (  5,  1,  6)  (  3,  1, 10)
  1 -0.3093E-06
   (  2,  1, 17)

 MAXIMUM RESIDUAL FOR EACH ITERATION (1 INDICATES THE FIRST INNER ITERATION):

    RESIDUAL       RESIDUAL       RESIDUAL       RESIDUAL       RESIDUAL    
   LAYER,ROW,COL  LAYER,ROW,COL  LAYER,ROW,COL  LAYER,ROW,COL  LAYER,ROW,COL
 ---------------------------------------------------------------------------
  1   5.254      0   3.333      0  -1.628      0 -0.9775      0 -0.7818    
   ( 50,  1, 43)  ( 50,  1, 36)  ( 49,  1, 36)  ( 50,  1, 55)  ( 50,  1, 34)
  0 -0.4129      0 -0.2912      0  0.1641      0  0.9451E-01  0  0.6483E-01
   ( 49,  1, 44)  ( 49,  1, 41)  ( 50,  1, 34)  ( 49,  1, 45)  ( 49,  1, 40)
  0  0.4017E-01  0 -0.3602E-01  0 -0.2931E-01  0  0.2244E-01  0  0.1547E-01
   ( 41,  1,  1)  ( 42,  1,  2)  ( 44,  1,  2)  ( 42,  1,  2)  ( 44,  1,  2)
  1  0.7087E-02
   (  1,  1, 99)


 FLOW MODEL IS TRANSIENT
 FLOW MODEL CONTAINS CONSTANT-HEAD CELLS


 MAXIMUM STEPSIZE DURING WHICH ANY PARTICLE CANNOT MOVE MORE THAN ONE CELL
 =  9.770    (WHEN MIN. R.F.=1)  AT K=   1, I=   1, J=  99

 MAXIMUM STEPSIZE WHICH MEETS STABILITY CRITERION OF THE ADVECTION TERM
 (FOR PURE FINITE-DIFFERENCE OPTION, MIXELM=0) 
 =  9.520    (WHEN MIN. R.F.=1)  AT K=   1, I=   1, J=  99


 TOTAL NUMBER OF POINT SOURCES/SINKS PRESENT IN THE FLOW MODEL =       100

 MAXIMUM STEPSIZE WHICH MEETS STABILITY CRITERION OF THE SINK & SOURCE TERM
 =  122.8    (WHEN MIN. R.F.=1)  AT K=   1, I=   1, J=   1

 MAXIMUM STEPSIZE WHICH MEETS STABILITY CRITERION OF THE DISPERSION TERM
 =  2.174    (WHEN MIN. R.F.=1)  AT K=   1, I=   1, J=  99
     5 CALLS TO GCG PACKAGE FOR TRANSPORT TIME STEP   2 IN FLOW TIME STEP   1 STRESS PERIOD   8
    15 TOTAL ITERATIONS
 
 SOLVING FOR HEAD 


     2 CALLS TO PCG ROUTINE FOR TIME STEP   1 IN STRESS PERIOD    8
    21 TOTAL ITERATIONS

 MAXIMUM HEAD CHANGE FOR EACH ITERATION (1 INDICATES THE FIRST INNER ITERATION):

    HEAD CHANGE    HEAD CHANGE    HEAD CHANGE    HEAD CHANGE    HEAD CHANGE 
   LAYER,ROW,COL  LAYER,ROW,COL  LAYER,ROW,COL  LAYER,ROW,COL  LAYER,ROW,COL
 ---------------------------------------------------------------------------
  1  0.7320E-03  0  0.2166E-03  0  0.1198E-03  0  0.6811E-04  0  0.4856E-04
   ( 50,  1, 41)  ( 48,  1, 49)  ( 46,  1, 55)  ( 43,  1, 60)  ( 40,  1, 63)
  0  0.2658E-04  0 -0.1775E-04  0 -0.1103E-04  0 -0.5762E-05  0 -0.4780E-05
   ( 50,  1, 60)  (  1,  1, 71)  (  2,  1, 66)  (  1,  1, 46)  (  1,  1, 50)
  0 -0.3902E-05  0 -0.2815E-05  0 -0.2091E-05  0 -0.1392E-05  0 -0.1241E-05
   (  2,  1, 39)  (  3,  1, 31)  (  6,  1, 28)  (  5,  1,  6)  (  2,  1,  9)
  0 -0.1338E-05  0 -0.1483E-05  0 -0.1319E-05  0 -0.1034E-05  0 -0.9754E-06
   (  8,  1,  1)  (  4,  1,  1)  (  1,  1,  4)  ( 49,  1, 11)  ( 49,  1,  4)
  1 -0.1723E-06
   (  2,  1, 52)

 MAXIMUM RESIDUAL FOR EACH ITERATION (1 INDICATES THE FIRST INNER ITERATION):

    RESIDUAL       RESIDUAL       RESIDUAL       RESIDUAL       RESIDUAL    
   LAYER,ROW,COL  LAYER,ROW,COL  LAYER,ROW,COL  LAYER,ROW,COL  LAYER,ROW,COL
 ---------------------------------------------------------------------------
  1   5.397      0   3.414      0  -1.663      0 -0.9936      0 -0.7970    
   ( 50,  1, 43)  ( 50,  1, 36)  ( 49,  1, 35)  ( 50,  1, 55)  ( 50,  1, 34)
  0 -0.4317      0 -0.3053      0  0.1686      0  0.9518E-01  0  0.6840E-01
   ( 49,  1, 44)  ( 49,  1, 40)  ( 50,  1, 34)  ( 49,  1, 45)  ( 49,  1, 40)
  0  0.4146E-01  0 -0.3770E-01  0 -0.3218E-01  0  0.2666E-01  0  0.1892E-01
   ( 41,  1,  1)  ( 49,  1, 44)  ( 44,  1,  2)  ( 42,  1,  2)  ( 44,  1,  2)
  0  0.2087E-01  0 -0.1977E-01  0  0.1629E-01  0  0.1655E-01  0  0.1287E-01
   (  1,  1, 99)  ( 44,  1,  2)  ( 42,  1,  2)  ( 44,  1,  2)  (  2,  1, 99)
  1 -0.6703E-02
   (  1,  1, 99)


 FLOW MODEL IS TRANSIENT
 FLOW MODEL CONTAINS CONSTANT-HEAD CELLS


 MAXIMUM STEPSIZE DURING WHICH ANY PARTICLE CANNOT MOVE MORE THAN ONE CELL
 =  9.776    (WHEN MIN. R.F.=1)  AT K=   1, I=   1, J=  99

 MAXIMUM STEPSIZE WHICH MEETS STABILITY CRITERION OF THE ADVECTION TERM
 (FOR PURE FINITE-DIFFERENCE OPTION, MIXELM=0) 
 =  9.527    (WHEN MIN. R.F.=1)  AT K=   1, I=   1, J=  99


 TOTAL NUMBER OF POINT SOURCES/SINKS PRESENT IN THE FLOW MODEL =       100

 MAXIMUM STEPSIZE WHICH MEETS STABILITY CRITERION OF THE SINK & SOURCE TERM
 =  122.8    (WHEN MIN. R.F.=1)  AT K=   1, I=   1, J=   1

 MAXIMUM STEPSIZE WHICH MEETS STABILITY CRITERION OF THE DISPERSION TERM
 =  2.176    (WHEN MIN. R.F.=1)  AT K=   1, I=   1, J=  99
     5 CALLS TO GCG PACKAGE FOR TRANSPORT TIME STEP   3 IN FLOW TIME STEP   1 STRESS PERIOD   8
    15 TOTAL ITERATIONS
 
 SOLVING FOR HEAD 


     2 CALLS TO PCG ROUTINE FOR TIME STEP   1 IN STRESS PERIOD    8
    20 TOTAL ITERATIONS

 MAXIMUM HEAD CHANGE FOR EACH ITERATION (1 INDICATES THE FIRST INNER ITERATION):

    HEAD CHANGE    HEAD CHANGE    HEAD CHANGE    HEAD CHANGE    HEAD CHANGE 
   LAYER,ROW,COL  LAYER,ROW,COL  LAYER,ROW,COL  LAYER,ROW,COL  LAYER,ROW,COL
 ---------------------------------------------------------------------------
  1  0.7330E-03  0  0.2172E-03  0  0.1200E-03  0  0.6841E-04  0  0.4890E-04
   ( 50,  1, 41)  ( 48,  1, 49)  ( 46,  1, 55)  ( 43,  1, 60)  ( 40,  1, 63)
  0  0.2668E-04  0 -0.1773E-04  0 -0.1091E-04  0 -0.5914E-05  0 -0.4694E-05
   ( 50,  1, 60)  (  1,  1, 70)  (  2,  1, 66)  (  1,  1, 45)  (  1,  1, 50)
  0 -0.3735E-05  0 -0.2694E-05  0 -0.1977E-05  0 -0.1373E-05  0 -0.1168E-05
   (  2,  1, 39)  (  3,  1, 30)  (  6,  1, 27)  (  5,  1,  5)  (  3,  1, 10)
  0 -0.1198E-05  0 -0.1331E-05  0 -0.1220E-05  0 -0.9166E-06  1 -0.2093E-06
   (  1,  1, 14)  (  5,  1,  1)  (  1,  1,  3)  ( 49,  1, 11)  ( 45,  1, 12)

 MAXIMUM RESIDUAL FOR EACH ITERATION (1 INDICATES THE FIRST INNER ITERATION):

    RESIDUAL       RESIDUAL       RESIDUAL       RESIDUAL       RESIDUAL    
   LAYER,ROW,COL  LAYER,ROW,COL  LAYER,ROW,COL  LAYER,ROW,COL  LAYER,ROW,COL
 ---------------------------------------------------------------------------
  1   5.414      0   3.427      0  -1.690      0 -0.9935      0 -0.7987    
   ( 50,  1, 43)  ( 50,  1, 36)  ( 49,  1, 35)  ( 50,  1, 55)  ( 50,  1, 33)
  0 -0.4340      0 -0.3064      0  0.1660      0  0.9420E-01  0  0.6754E-01
   ( 49,  1, 44)  ( 49,  1, 40)  ( 50,  1, 34)  ( 49,  1, 45)  ( 49,  1, 40)
  0  0.4242E-01  0 -0.3818E-01  0 -0.3116E-01  0  0.2504E-01  0  0.1731E-01
   ( 41,  1,  1)  ( 42,  1,  2)  ( 44,  1,  2)  ( 42,  1,  2)  ( 44,  1,  2)
  0  0.1883E-01  0 -0.1759E-01  0  0.1462E-01  0  0.1543E-01  1 -0.7348E-02
   (  1,  1, 99)  ( 44,  1,  2)  ( 42,  1,  2)  ( 44,  1,  2)  (  1,  1, 99)


 FLOW MODEL IS TRANSIENT
 FLOW MODEL CONTAINS CONSTANT-HEAD CELLS


 MAXIMUM STEPSIZE DURING WHICH ANY PARTICLE CANNOT MOVE MORE THAN ONE CELL
 =  9.781    (WHEN MIN. R.F.=1)  AT K=   1, I=   1, J=  99

 MAXIMUM STEPSIZE WHICH MEETS STABILITY CRITERION OF THE ADVECTION TERM
 (FOR PURE FINITE-DIFFERENCE OPTION, MIXELM=0) 
 =  9.532    (WHEN MIN. R.F.=1)  AT K=   1, I=   1, J=  99


 TOTAL NUMBER OF POINT SOURCES/SINKS PRESENT IN THE FLOW MODEL =       100

 MAXIMUM STEPSIZE WHICH MEETS STABILITY CRITERION OF THE SINK & SOURCE TERM
 =  122.8    (WHEN MIN. R.F.=1)  AT K=   1, I=   1, J=   1

 MAXIMUM STEPSIZE WHICH MEETS STABILITY CRITERION OF THE DISPERSION TERM
 =  2.177    (WHEN MIN. R.F.=1)  AT K=   1, I=   1, J=  99
     5 CALLS TO GCG PACKAGE FOR TRANSPORT TIME STEP   4 IN FLOW TIME STEP   1 STRESS PERIOD   8
    15 TOTAL ITERATIONS
 
 SOLVING FOR HEAD 


     2 CALLS TO PCG ROUTINE FOR TIME STEP   1 IN STRESS PERIOD    8
    20 TOTAL ITERATIONS

 MAXIMUM HEAD CHANGE FOR EACH ITERATION (1 INDICATES THE FIRST INNER ITERATION):

    HEAD CHANGE    HEAD CHANGE    HEAD CHANGE    HEAD CHANGE    HEAD CHANGE 
   LAYER,ROW,COL  LAYER,ROW,COL  LAYER,ROW,COL  LAYER,ROW,COL  LAYER,ROW,COL
 ---------------------------------------------------------------------------
  1  0.7319E-03  0  0.2167E-03  0  0.1193E-03  0  0.6813E-04  0  0.4856E-04
   ( 50,  1, 41)  ( 48,  1, 49)  ( 46,  1, 55)  ( 43,  1, 60)  ( 40,  1, 64)
  0  0.2666E-04  0 -0.1702E-04  0 -0.1025E-04  0 -0.5873E-05  0 -0.4431E-05
   ( 50,  1, 60)  (  1,  1, 70)  (  2,  1, 66)  (  1,  1, 47)  (  1,  1, 51)
  0 -0.3727E-05  0 -0.2658E-05  0 -0.1939E-05  0 -0.1315E-05  0 -0.1095E-05
   (  2,  1, 39)  (  3,  1, 30)  (  6,  1, 27)  (  5,  1,  5)  (  2,  1,  9)
  0 -0.1125E-05  0 -0.1265E-05  0 -0.1167E-05  0 -0.8679E-06  1 -0.2138E-06
   (  1,  1, 14)  (  4,  1,  1)  (  1,  1,  4)  ( 49,  1, 11)  ( 45,  1, 12)

 MAXIMUM RESIDUAL FOR EACH ITERATION (1 INDICATES THE FIRST INNER ITERATION):

    RESIDUAL       RESIDUAL       RESIDUAL       RESIDUAL       RESIDUAL    
   LAYER,ROW,COL  LAYER,ROW,COL  LAYER,ROW,COL  LAYER,ROW,COL  LAYER,ROW,COL
 ---------------------------------------------------------------------------
  1   5.408      0   3.416      0  -1.704      0 -0.9930      0 -0.7986    
   ( 50,  1, 43)  ( 50,  1, 36)  ( 49,  1, 35)  ( 50,  1, 55)  ( 50,  1, 33)
  0 -0.4327      0 -0.3068      0  0.1652      0  0.9359E-01  0  0.6729E-01
   ( 49,  1, 44)  ( 49,  1, 40)  ( 50,  1, 34)  ( 49,  1, 44)  ( 49,  1, 40)
  0  0.4187E-01  0 -0.3701E-01  0 -0.3141E-01  0  0.2528E-01  0  0.1661E-01
   ( 41,  1,  1)  ( 42,  1,  2)  ( 44,  1,  2)  ( 42,  1,  2)  ( 44,  1,  2)
  0  0.1788E-01  0 -0.1689E-01  0  0.1428E-01  0  0.1472E-01  1 -0.6996E-02
   (  1,  1, 99)  ( 44,  1,  2)  ( 42,  1,  2)  ( 44,  1,  2)  (  1,  1, 99)


 FLOW MODEL IS TRANSIENT
 FLOW MODEL CONTAINS CONSTANT-HEAD CELLS


 MAXIMUM STEPSIZE DURING WHICH ANY PARTICLE CANNOT MOVE MORE THAN ONE CELL
 =  9.785    (WHEN MIN. R.F.=1)  AT K=   1, I=   1, J=  99

 MAXIMUM STEPSIZE WHICH MEETS STABILITY CRITERION OF THE ADVECTION TERM
 (FOR PURE FINITE-DIFFERENCE OPTION, MIXELM=0) 
 =  9.536    (WHEN MIN. R.F.=1)  AT K=   1, I=   1, J=  99


 TOTAL NUMBER OF POINT SOURCES/SINKS PRESENT IN THE FLOW MODEL =       100

 MAXIMUM STEPSIZE WHICH MEETS STABILITY CRITERION OF THE SINK & SOURCE TERM
 =  122.8    (WHEN MIN. R.F.=1)  AT K=   1, I=   1, J=   1

 MAXIMUM STEPSIZE WHICH MEETS STABILITY CRITERION OF THE DISPERSION TERM
 =  2.178    (WHEN MIN. R.F.=1)  AT K=   1, I=   1, J=  99
     5 CALLS TO GCG PACKAGE FOR TRANSPORT TIME STEP   5 IN FLOW TIME STEP   1 STRESS PERIOD   8
    15 TOTAL ITERATIONS
 
 SOLVING FOR HEAD 


     2 CALLS TO PCG ROUTINE FOR TIME STEP   1 IN STRESS PERIOD    8
    20 TOTAL ITERATIONS

 MAXIMUM HEAD CHANGE FOR EACH ITERATION (1 INDICATES THE FIRST INNER ITERATION):

    HEAD CHANGE    HEAD CHANGE    HEAD CHANGE    HEAD CHANGE    HEAD CHANGE 
   LAYER,ROW,COL  LAYER,ROW,COL  LAYER,ROW,COL  LAYER,ROW,COL  LAYER,ROW,COL
 ---------------------------------------------------------------------------
  1  0.7304E-03  0  0.2165E-03  0  0.1192E-03  0  0.6810E-04  0  0.4859E-04
   ( 50,  1, 41)  ( 48,  1, 49)  ( 46,  1, 55)  ( 43,  1, 60)  ( 40,  1, 63)
  0  0.2666E-04  0 -0.1686E-04  0 -0.1010E-04  0 -0.5865E-05  0 -0.4381E-05
   ( 50,  1, 60)  (  1,  1, 69)  (  2,  1, 66)  (  1,  1, 46)  (  1,  1, 51)
  0 -0.3667E-05  0 -0.2606E-05  0 -0.1901E-05  0 -0.1292E-05  0 -0.1063E-05
   (  2,  1, 39)  (  1,  1, 42)  (  6,  1, 27)  (  5,  1,  5)  (  2,  1,  9)
  0 -0.1082E-05  0 -0.1208E-05  0 -0.1122E-05  0 -0.8254E-06  1 -0.2096E-06
   (  1,  1, 14)  (  4,  1,  1)  (  1,  1,  4)  ( 49,  1, 11)  ( 45,  1, 12)

 MAXIMUM RESIDUAL FOR EACH ITERATION (1 INDICATES THE FIRST INNER ITERATION):

    RESIDUAL       RESIDUAL       RESIDUAL       RESIDUAL       RESIDUAL    
   LAYER,ROW,COL  LAYER,ROW,COL  LAYER,ROW,COL  LAYER,ROW,COL  LAYER,ROW,COL
 ---------------------------------------------------------------------------
  1   5.392      0   3.400      0  -1.712      0 -0.9880      0 -0.7973    
   ( 50,  1, 43)  ( 50,  1, 36)  ( 49,  1, 35)  ( 50,  1, 55)  ( 50,  1, 33)
  0 -0.4298      0 -0.3060      0  0.1623      0  0.9317E-01  0  0.6656E-01
   ( 49,  1, 44)  ( 49,  1, 40)  ( 50,  1, 34)  ( 49,  1, 44)  ( 49,  1, 40)
  0  0.4199E-01  0 -0.3746E-01  0 -0.3116E-01  0  0.2483E-01  0  0.1595E-01
   ( 41,  1,  1)  ( 42,  1,  2)  ( 44,  1,  2)  ( 42,  1,  2)  ( 44,  1,  2)
  0  0.1716E-01  0 -0.1616E-01  0  0.1372E-01  0  0.1425E-01  1 -0.6700E-02
   (  1,  1, 99)  ( 44,  1,  2)  ( 42,  1,  2)  ( 44,  1,  2)  (  1,  1, 99)


 FLOW MODEL IS TRANSIENT
 FLOW MODEL CONTAINS CONSTANT-HEAD CELLS


 MAXIMUM STEPSIZE DURING WHICH ANY PARTICLE CANNOT MOVE MORE THAN ONE CELL
 =  9.789    (WHEN MIN. R.F.=1)  AT K=   1, I=   1, J=  99

 MAXIMUM STEPSIZE WHICH MEETS STABILITY CRITERION OF THE ADVECTION TERM
 (FOR PURE FINITE-DIFFERENCE OPTION, MIXELM=0) 
 =  9.539    (WHEN MIN. R.F.=1)  AT K=   1, I=   1, J=  99


 TOTAL NUMBER OF POINT SOURCES/SINKS PRESENT IN THE FLOW MODEL =       100

 MAXIMUM STEPSIZE WHICH MEETS STABILITY CRITERION OF THE SINK & SOURCE TERM
 =  122.8    (WHEN MIN. R.F.=1)  AT K=   1, I=   1, J=   1

 MAXIMUM STEPSIZE WHICH MEETS STABILITY CRITERION OF THE DISPERSION TERM
 =  2.179    (WHEN MIN. R.F.=1)  AT K=   1, I=   1, J=  99
     5 CALLS TO GCG PACKAGE FOR TRANSPORT TIME STEP   6 IN FLOW TIME STEP   1 STRESS PERIOD   8
    15 TOTAL ITERATIONS
 
 SOLVING FOR HEAD 


     2 CALLS TO PCG ROUTINE FOR TIME STEP   1 IN STRESS PERIOD    8
    20 TOTAL ITERATIONS

 MAXIMUM HEAD CHANGE FOR EACH ITERATION (1 INDICATES THE FIRST INNER ITERATION):

    HEAD CHANGE    HEAD CHANGE    HEAD CHANGE    HEAD CHANGE    HEAD CHANGE 
   LAYER,ROW,COL  LAYER,ROW,COL  LAYER,ROW,COL  LAYER,ROW,COL  LAYER,ROW,COL
 ---------------------------------------------------------------------------
  1  0.7286E-03  0  0.2160E-03  0  0.1189E-03  0  0.6794E-04  0  0.4846E-04
   ( 50,  1, 41)  ( 48,  1, 49)  ( 46,  1, 55)  ( 43,  1, 60)  ( 40,  1, 63)
  0  0.2658E-04  0 -0.1673E-04  0 -0.1001E-04  0 -0.5854E-05  0 -0.4368E-05
   ( 50,  1, 60)  (  1,  1, 69)  (  1,  1, 66)  (  1,  1, 46)  (  1,  1, 50)
  0 -0.3663E-05  0 -0.2630E-05  0 -0.1917E-05  0 -0.1312E-05  0 -0.1085E-05
   (  2,  1, 39)  (  1,  1, 42)  (  6,  1, 27)  (  5,  1,  5)  (  2,  1,  9)
  0 -0.1111E-05  0 -0.1242E-05  0 -0.1144E-05  0 -0.8526E-06  1 -0.2124E-06
   (  1,  1, 13)  (  4,  1,  1)  (  1,  1,  4)  ( 49,  1, 11)  ( 45,  1, 12)

 MAXIMUM RESIDUAL FOR EACH ITERATION (1 INDICATES THE FIRST INNER ITERATION):

    RESIDUAL       RESIDUAL       RESIDUAL       RESIDUAL       RESIDUAL    
   LAYER,ROW,COL  LAYER,ROW,COL  LAYER,ROW,COL  LAYER,ROW,COL  LAYER,ROW,COL
 ---------------------------------------------------------------------------
  1   5.383      0   3.384      0  -1.722      0 -0.9835      0 -0.7984    
   ( 50,  1, 42)  ( 50,  1, 36)  ( 49,  1, 35)  ( 50,  1, 55)  ( 50,  1, 33)
  0 -0.4289      0 -0.3050      0  0.1626      0  0.9322E-01  0  0.6640E-01
   ( 49,  1, 44)  ( 49,  1, 40)  ( 50,  1, 33)  ( 49,  1, 44)  ( 49,  1, 40)
  0  0.4225E-01  0 -0.3801E-01  0 -0.3132E-01  0  0.2516E-01  0  0.1610E-01
   ( 41,  1,  1)  ( 42,  1,  2)  ( 44,  1,  2)  ( 42,  1,  2)  ( 44,  1,  2)
  0  0.1756E-01  0 -0.1656E-01  0  0.1407E-01  0  0.1456E-01  1 -0.6836E-02
   (  1,  1, 99)  ( 44,  1,  2)  ( 42,  1,  2)  ( 44,  1,  2)  (  1,  1, 99)


 FLOW MODEL IS TRANSIENT
 FLOW MODEL CONTAINS CONSTANT-HEAD CELLS


 MAXIMUM STEPSIZE DURING WHICH ANY PARTICLE CANNOT MOVE MORE THAN ONE CELL
 =  9.792    (WHEN MIN. R.F.=1)  AT K=   1, I=   1, J=  99

 MAXIMUM STEPSIZE WHICH MEETS STABILITY CRITERION OF THE ADVECTION TERM
 (FOR PURE FINITE-DIFFERENCE OPTION, MIXELM=0) 
 =  9.543    (WHEN MIN. R.F.=1)  AT K=   1, I=   1, J=  99


 TOTAL NUMBER OF POINT SOURCES/SINKS PRESENT IN THE FLOW MODEL =       100

 MAXIMUM STEPSIZE WHICH MEETS STABILITY CRITERION OF THE SINK & SOURCE TERM
 =  122.8    (WHEN MIN. R.F.=1)  AT K=   1, I=   1, J=   1

 MAXIMUM STEPSIZE WHICH MEETS STABILITY CRITERION OF THE DISPERSION TERM
 =  2.180    (WHEN MIN. R.F.=1)  AT K=   1, I=   1, J=  99
     5 CALLS TO GCG PACKAGE FOR TRANSPORT TIME STEP   7 IN FLOW TIME STEP   1 STRESS PERIOD   8
    15 TOTAL ITERATIONS
 
 SOLVING FOR HEAD 


     2 CALLS TO PCG ROUTINE FOR TIME STEP   1 IN STRESS PERIOD    8
    16 TOTAL ITERATIONS

 MAXIMUM HEAD CHANGE FOR EACH ITERATION (1 INDICATES THE FIRST INNER ITERATION):

    HEAD CHANGE    HEAD CHANGE    HEAD CHANGE    HEAD CHANGE    HEAD CHANGE 
   LAYER,ROW,COL  LAYER,ROW,COL  LAYER,ROW,COL  LAYER,ROW,COL  LAYER,ROW,COL
 ---------------------------------------------------------------------------
  1  0.7265E-03  0  0.2151E-03  0  0.1185E-03  0  0.6777E-04  0  0.4840E-04
   ( 50,  1, 41)  ( 48,  1, 49)  ( 46,  1, 54)  ( 43,  1, 59)  ( 40,  1, 63)
  0  0.2650E-04  0 -0.1655E-04  0 -0.9987E-05  0 -0.5800E-05  0 -0.4297E-05
   ( 50,  1, 60)  (  1,  1, 69)  (  1,  1, 67)  (  1,  1, 46)  (  1,  1, 51)
  0 -0.3558E-05  0 -0.2548E-05  0 -0.1810E-05  0 -0.1209E-05  0 -0.9601E-06
   (  2,  1, 38)  (  1,  1, 42)  (  6,  1, 27)  (  5,  1,  5)  (  2,  1,  9)
  1 -0.2763E-06
   (  2,  1, 16)

 MAXIMUM RESIDUAL FOR EACH ITERATION (1 INDICATES THE FIRST INNER ITERATION):

    RESIDUAL       RESIDUAL       RESIDUAL       RESIDUAL       RESIDUAL    
   LAYER,ROW,COL  LAYER,ROW,COL  LAYER,ROW,COL  LAYER,ROW,COL  LAYER,ROW,COL
 ---------------------------------------------------------------------------
  1   5.380      0   3.359      0  -1.716      0 -0.9805      0 -0.7979    
   ( 50,  1, 42)  ( 50,  1, 36)  ( 49,  1, 35)  ( 50,  1, 55)  ( 50,  1, 33)
  0 -0.4280      0 -0.3038      0  0.1638      0  0.9265E-01  0  0.6559E-01
   ( 49,  1, 44)  ( 49,  1, 40)  ( 50,  1, 33)  ( 49,  1, 44)  ( 49,  1, 39)
  0  0.4171E-01  0 -0.3757E-01  0 -0.3043E-01  0  0.2351E-01  0  0.1442E-01
   ( 41,  1,  1)  ( 42,  1,  2)  ( 44,  1,  2)  ( 42,  1,  2)  ( 44,  1,  2)
  1  0.5360E-02
   (  1,  1, 98)


 FLOW MODEL IS TRANSIENT
 FLOW MODEL CONTAINS CONSTANT-HEAD CELLS


 MAXIMUM STEPSIZE DURING WHICH ANY PARTICLE CANNOT MOVE MORE THAN ONE CELL
 =  9.795    (WHEN MIN. R.F.=1)  AT K=   1, I=   1, J=  99

 MAXIMUM STEPSIZE WHICH MEETS STABILITY CRITERION OF THE ADVECTION TERM
 (FOR PURE FINITE-DIFFERENCE OPTION, MIXELM=0) 
 =  9.546    (WHEN MIN. R.F.=1)  AT K=   1, I=   1, J=  99


 TOTAL NUMBER OF POINT SOURCES/SINKS PRESENT IN THE FLOW MODEL =       100

 MAXIMUM STEPSIZE WHICH MEETS STABILITY CRITERION OF THE SINK & SOURCE TERM
 =  122.8    (WHEN MIN. R.F.=1)  AT K=   1, I=   1, J=   1

 MAXIMUM STEPSIZE WHICH MEETS STABILITY CRITERION OF THE DISPERSION TERM
 =  2.180    (WHEN MIN. R.F.=1)  AT K=   1, I=   1, J=  99
     5 CALLS TO GCG PACKAGE FOR TRANSPORT TIME STEP   8 IN FLOW TIME STEP   1 STRESS PERIOD   8
    15 TOTAL ITERATIONS
 
 SOLVING FOR HEAD 


     2 CALLS TO PCG ROUTINE FOR TIME STEP   1 IN STRESS PERIOD    8
    20 TOTAL ITERATIONS

 MAXIMUM HEAD CHANGE FOR EACH ITERATION (1 INDICATES THE FIRST INNER ITERATION):

    HEAD CHANGE    HEAD CHANGE    HEAD CHANGE    HEAD CHANGE    HEAD CHANGE 
   LAYER,ROW,COL  LAYER,ROW,COL  LAYER,ROW,COL  LAYER,ROW,COL  LAYER,ROW,COL
 ---------------------------------------------------------------------------
  1  0.7242E-03  0  0.2144E-03  0  0.1184E-03  0  0.6778E-04  0  0.4843E-04
   ( 50,  1, 41)  ( 48,  1, 49)  ( 46,  1, 54)  ( 43,  1, 59)  ( 40,  1, 63)
  0  0.2642E-04  0 -0.1644E-04  0 -0.9927E-05  0 -0.5747E-05  0 -0.4350E-05
   ( 50,  1, 59)  (  1,  1, 68)  (  1,  1, 67)  (  1,  1, 46)  (  1,  1, 50)
  0 -0.3624E-05  0 -0.2636E-05  0 -0.1871E-05  0 -0.1251E-05  0 -0.1026E-05
   (  2,  1, 38)  (  1,  1, 42)  (  6,  1, 27)  (  5,  1,  5)  (  2,  1,  8)
  0 -0.1040E-05  0 -0.1148E-05  0 -0.1065E-05  0 -0.7808E-06  1 -0.2042E-06
   (  1,  1, 13)  (  4,  1,  2)  (  1,  1,  4)  ( 49,  1, 11)  ( 45,  1, 12)

 MAXIMUM RESIDUAL FOR EACH ITERATION (1 INDICATES THE FIRST INNER ITERATION):

    RESIDUAL       RESIDUAL       RESIDUAL       RESIDUAL       RESIDUAL    
   LAYER,ROW,COL  LAYER,ROW,COL  LAYER,ROW,COL  LAYER,ROW,COL  LAYER,ROW,COL
 ---------------------------------------------------------------------------
  1   5.373      0   3.360      0  -1.708      0 -0.9783      0 -0.7984    
   ( 50,  1, 42)  ( 50,  1, 35)  ( 49,  1, 35)  ( 50,  1, 55)  ( 50,  1, 33)
  0 -0.4277      0 -0.3033      0  0.1668      0  0.9312E-01  0  0.6645E-01
   ( 49,  1, 43)  ( 49,  1, 40)  ( 50,  1, 33)  ( 49,  1, 44)  ( 49,  1, 39)
  0  0.4213E-01  0 -0.3873E-01  0 -0.3077E-01  0  0.2422E-01  0  0.1504E-01
   ( 41,  1,  1)  ( 42,  1,  2)  ( 44,  1,  2)  ( 42,  1,  2)  ( 45,  1,  2)
  0  0.1633E-01  0 -0.1545E-01  0  0.1322E-01  0  0.1367E-01  1 -0.6271E-02
   (  1,  1, 99)  ( 44,  1,  2)  ( 42,  1,  2)  ( 44,  1,  2)  (  1,  1, 99)


 FLOW MODEL IS TRANSIENT
 FLOW MODEL CONTAINS CONSTANT-HEAD CELLS


 MAXIMUM STEPSIZE DURING WHICH ANY PARTICLE CANNOT MOVE MORE THAN ONE CELL
 =  9.798    (WHEN MIN. R.F.=1)  AT K=   1, I=   1, J=  99

 MAXIMUM STEPSIZE WHICH MEETS STABILITY CRITERION OF THE ADVECTION TERM
 (FOR PURE FINITE-DIFFERENCE OPTION, MIXELM=0) 
 =  9.549    (WHEN MIN. R.F.=1)  AT K=   1, I=   1, J=  99


 TOTAL NUMBER OF POINT SOURCES/SINKS PRESENT IN THE FLOW MODEL =       100

 MAXIMUM STEPSIZE WHICH MEETS STABILITY CRITERION OF THE SINK & SOURCE TERM
 =  122.8    (WHEN MIN. R.F.=1)  AT K=   1, I=   1, J=   1

 MAXIMUM STEPSIZE WHICH MEETS STABILITY CRITERION OF THE DISPERSION TERM
 =  2.181    (WHEN MIN. R.F.=1)  AT K=   1, I=   1, J=  99
     5 CALLS TO GCG PACKAGE FOR TRANSPORT TIME STEP   9 IN FLOW TIME STEP   1 STRESS PERIOD   8
    15 TOTAL ITERATIONS
 
 SOLVING FOR HEAD 


     2 CALLS TO PCG ROUTINE FOR TIME STEP   1 IN STRESS PERIOD    8
    20 TOTAL ITERATIONS

 MAXIMUM HEAD CHANGE FOR EACH ITERATION (1 INDICATES THE FIRST INNER ITERATION):

    HEAD CHANGE    HEAD CHANGE    HEAD CHANGE    HEAD CHANGE    HEAD CHANGE 
   LAYER,ROW,COL  LAYER,ROW,COL  LAYER,ROW,COL  LAYER,ROW,COL  LAYER,ROW,COL
 ---------------------------------------------------------------------------
  1  0.7219E-03  0  0.2135E-03  0  0.1179E-03  0  0.6745E-04  0  0.4823E-04
   ( 50,  1, 40)  ( 48,  1, 49)  ( 46,  1, 54)  ( 43,  1, 59)  ( 40,  1, 63)
  0  0.2638E-04  0 -0.1635E-04  0 -0.1002E-04  0 -0.5785E-05  0 -0.4295E-05
   ( 50,  1, 59)  (  1,  1, 69)  (  1,  1, 67)  (  1,  1, 46)  (  1,  1, 50)
  0 -0.3559E-05  0 -0.2584E-05  0 -0.1845E-05  0 -0.1255E-05  0 -0.1006E-05
   (  2,  1, 38)  (  1,  1, 42)  (  6,  1, 27)  (  5,  1,  5)  (  2,  1,  8)
  0 -0.1007E-05  0 -0.1113E-05  0 -0.1042E-05  0 -0.7475E-06  1 -0.1980E-06
   (  1,  1, 13)  (  4,  1,  1)  (  1,  1,  4)  ( 49,  1, 11)  ( 45,  1, 12)

 MAXIMUM RESIDUAL FOR EACH ITERATION (1 INDICATES THE FIRST INNER ITERATION):

    RESIDUAL       RESIDUAL       RESIDUAL       RESIDUAL       RESIDUAL    
   LAYER,ROW,COL  LAYER,ROW,COL  LAYER,ROW,COL  LAYER,ROW,COL  LAYER,ROW,COL
 ---------------------------------------------------------------------------
  1   5.360      0   3.367      0  -1.692      0 -0.9774      0 -0.7955    
   ( 50,  1, 42)  ( 50,  1, 35)  ( 49,  1, 35)  ( 50,  1, 54)  ( 50,  1, 33)
  0 -0.4281      0 -0.3030      0  0.1656      0  0.9267E-01  0  0.6578E-01
   ( 49,  1, 43)  ( 49,  1, 40)  ( 50,  1, 33)  ( 49,  1, 44)  ( 49,  1, 39)
  0  0.4232E-01  0 -0.3855E-01  0 -0.3063E-01  0  0.2404E-01  0  0.1477E-01
   ( 41,  1,  1)  ( 42,  1,  2)  ( 44,  1,  2)  ( 42,  1,  2)  ( 44,  1,  2)
  0  0.1551E-01  0 -0.1489E-01  0 -0.1297E-01  0  0.1335E-01  1 -0.6052E-02
   (  1,  1, 99)  ( 44,  1,  2)  (  2,  1, 99)  ( 44,  1,  2)  (  1,  1, 99)


 FLOW MODEL IS TRANSIENT
 FLOW MODEL CONTAINS CONSTANT-HEAD CELLS


 MAXIMUM STEPSIZE DURING WHICH ANY PARTICLE CANNOT MOVE MORE THAN ONE CELL
 =  9.801    (WHEN MIN. R.F.=1)  AT K=   1, I=   1, J=  99

 MAXIMUM STEPSIZE WHICH MEETS STABILITY CRITERION OF THE ADVECTION TERM
 (FOR PURE FINITE-DIFFERENCE OPTION, MIXELM=0) 
 =  9.552    (WHEN MIN. R.F.=1)  AT K=   1, I=   1, J=  99


 TOTAL NUMBER OF POINT SOURCES/SINKS PRESENT IN THE FLOW MODEL =       100

 MAXIMUM STEPSIZE WHICH MEETS STABILITY CRITERION OF THE SINK & SOURCE TERM
 =  122.8    (WHEN MIN. R.F.=1)  AT K=   1, I=   1, J=   1

 MAXIMUM STEPSIZE WHICH MEETS STABILITY CRITERION OF THE DISPERSION TERM
 =  2.182    (WHEN MIN. R.F.=1)  AT K=   1, I=   1, J=  99
     5 CALLS TO GCG PACKAGE FOR TRANSPORT TIME STEP  10 IN FLOW TIME STEP   1 STRESS PERIOD   8
    15 TOTAL ITERATIONS
 
 SOLVING FOR HEAD 


     2 CALLS TO PCG ROUTINE FOR TIME STEP   1 IN STRESS PERIOD    8
    20 TOTAL ITERATIONS

 MAXIMUM HEAD CHANGE FOR EACH ITERATION (1 INDICATES THE FIRST INNER ITERATION):

    HEAD CHANGE    HEAD CHANGE    HEAD CHANGE    HEAD CHANGE    HEAD CHANGE 
   LAYER,ROW,COL  LAYER,ROW,COL  LAYER,ROW,COL  LAYER,ROW,COL  LAYER,ROW,COL
 ---------------------------------------------------------------------------
  1  0.7206E-03  0  0.2128E-03  0  0.1177E-03  0  0.6731E-04  0  0.4815E-04
   ( 50,  1, 40)  ( 48,  1, 48)  ( 46,  1, 54)  ( 43,  1, 59)  ( 40,  1, 63)
  0  0.2624E-04  0 -0.1635E-04  0 -0.1007E-04  0 -0.5855E-05  0 -0.4386E-05
   ( 50,  1, 59)  (  1,  1, 69)  (  1,  1, 67)  (  1,  1, 46)  (  1,  1, 50)
  0 -0.3669E-05  0 -0.2723E-05  0 -0.2011E-05  0 -0.1424E-05  0 -0.1199E-05
   (  2,  1, 38)  (  1,  1, 42)  (  6,  1, 27)  (  5,  1,  5)  (  2,  1,  8)
  0 -0.1259E-05  0 -0.1390E-05  0 -0.1236E-05  0 -0.9737E-06  1 -0.2262E-06
   (  1,  1, 13)  (  4,  1,  1)  (  1,  1,  4)  ( 49,  1, 11)  ( 45,  1, 12)

 MAXIMUM RESIDUAL FOR EACH ITERATION (1 INDICATES THE FIRST INNER ITERATION):

    RESIDUAL       RESIDUAL       RESIDUAL       RESIDUAL       RESIDUAL    
   LAYER,ROW,COL  LAYER,ROW,COL  LAYER,ROW,COL  LAYER,ROW,COL  LAYER,ROW,COL
 ---------------------------------------------------------------------------
  1   5.350      0   3.372      0  -1.671      0 -0.9772      0 -0.7933    
   ( 50,  1, 42)  ( 50,  1, 35)  ( 49,  1, 35)  ( 50,  1, 54)  ( 50,  1, 33)
  0 -0.4281      0 -0.3028      0  0.1664      0  0.9292E-01  0  0.6650E-01
   ( 49,  1, 43)  ( 49,  1, 40)  ( 50,  1, 33)  ( 49,  1, 44)  ( 49,  1, 39)
  0  0.4345E-01  0 -0.4016E-01  0 -0.3195E-01  0  0.2655E-01  0  0.1754E-01
   ( 41,  1,  1)  ( 42,  1,  2)  ( 44,  1,  2)  ( 42,  1,  2)  ( 45,  1,  2)
  0  0.1933E-01  0 -0.1845E-01  0  0.1574E-01  0  0.1584E-01  1 -0.7351E-02
   (  1,  1, 99)  ( 44,  1,  2)  ( 42,  1,  2)  ( 44,  1,  2)  (  1,  1, 99)


 FLOW MODEL IS TRANSIENT
 FLOW MODEL CONTAINS CONSTANT-HEAD CELLS


 MAXIMUM STEPSIZE DURING WHICH ANY PARTICLE CANNOT MOVE MORE THAN ONE CELL
 =  9.804    (WHEN MIN. R.F.=1)  AT K=   1, I=   1, J=  99

 MAXIMUM STEPSIZE WHICH MEETS STABILITY CRITERION OF THE ADVECTION TERM
 (FOR PURE FINITE-DIFFERENCE OPTION, MIXELM=0) 
 =  9.555    (WHEN MIN. R.F.=1)  AT K=   1, I=   1, J=  99


 TOTAL NUMBER OF POINT SOURCES/SINKS PRESENT IN THE FLOW MODEL =       100

 MAXIMUM STEPSIZE WHICH MEETS STABILITY CRITERION OF THE SINK & SOURCE TERM
 =  122.8    (WHEN MIN. R.F.=1)  AT K=   1, I=   1, J=   1

 MAXIMUM STEPSIZE WHICH MEETS STABILITY CRITERION OF THE DISPERSION TERM
 =  2.182    (WHEN MIN. R.F.=1)  AT K=   1, I=   1, J=  99
     5 CALLS TO GCG PACKAGE FOR TRANSPORT TIME STEP  11 IN FLOW TIME STEP   1 STRESS PERIOD   8
    15 TOTAL ITERATIONS
 
 SOLVING FOR HEAD 


     2 CALLS TO PCG ROUTINE FOR TIME STEP   1 IN STRESS PERIOD    8
    20 TOTAL ITERATIONS

 MAXIMUM HEAD CHANGE FOR EACH ITERATION (1 INDICATES THE FIRST INNER ITERATION):

    HEAD CHANGE    HEAD CHANGE    HEAD CHANGE    HEAD CHANGE    HEAD CHANGE 
   LAYER,ROW,COL  LAYER,ROW,COL  LAYER,ROW,COL  LAYER,ROW,COL  LAYER,ROW,COL
 ---------------------------------------------------------------------------
  1  0.7192E-03  0  0.2121E-03  0  0.1174E-03  0  0.6724E-04  0  0.4806E-04
   ( 50,  1, 40)  ( 48,  1, 48)  ( 46,  1, 54)  ( 43,  1, 59)  ( 40,  1, 63)
  0  0.2615E-04  0 -0.1625E-04  0 -0.1004E-04  0 -0.5802E-05  0 -0.4326E-05
   ( 50,  1, 59)  (  1,  1, 68)  (  1,  1, 68)  (  1,  1, 46)  (  1,  1, 50)
  0 -0.3611E-05  0 -0.2665E-05  0 -0.1943E-05  0 -0.1347E-05  0 -0.1116E-05
   (  2,  1, 38)  (  1,  1, 42)  (  6,  1, 27)  (  5,  1,  5)  (  2,  1,  8)
  0 -0.1155E-05  0 -0.1278E-05  0 -0.1166E-05  0 -0.8902E-06  1 -0.2179E-06
   (  1,  1, 13)  (  4,  1,  2)  (  1,  1,  4)  ( 49,  1, 11)  ( 45,  1, 12)

 MAXIMUM RESIDUAL FOR EACH ITERATION (1 INDICATES THE FIRST INNER ITERATION):

    RESIDUAL       RESIDUAL       RESIDUAL       RESIDUAL       RESIDUAL    
   LAYER,ROW,COL  LAYER,ROW,COL  LAYER,ROW,COL  LAYER,ROW,COL  LAYER,ROW,COL
 ---------------------------------------------------------------------------
  1   5.333      0   3.372      0  -1.647      0 -0.9730      0 -0.7896    
   ( 50,  1, 42)  ( 50,  1, 35)  ( 49,  1, 35)  ( 50,  1, 54)  ( 50,  1, 33)
  0 -0.4278      0 -0.3016      0  0.1667      0  0.9243E-01  0  0.6589E-01
   ( 49,  1, 43)  ( 49,  1, 40)  ( 50,  1, 33)  ( 49,  1, 44)  ( 49,  1, 39)
  0  0.4290E-01  0 -0.3977E-01  0 -0.3136E-01  0  0.2550E-01  0  0.1637E-01
   ( 41,  1,  1)  ( 42,  1,  2)  ( 44,  1,  2)  ( 42,  1,  2)  ( 45,  1,  2)
  0  0.1759E-01  0 -0.1701E-01  0 -0.1482E-01  0  0.1491E-01  1 -0.6837E-02
   (  1,  1, 99)  ( 44,  1,  2)  (  2,  1, 99)  ( 44,  1,  2)  (  1,  1, 99)


 FLOW MODEL IS TRANSIENT
 FLOW MODEL CONTAINS CONSTANT-HEAD CELLS


 MAXIMUM STEPSIZE DURING WHICH ANY PARTICLE CANNOT MOVE MORE THAN ONE CELL
 =  9.807    (WHEN MIN. R.F.=1)  AT K=   1, I=   1, J=  99

 MAXIMUM STEPSIZE WHICH MEETS STABILITY CRITERION OF THE ADVECTION TERM
 (FOR PURE FINITE-DIFFERENCE OPTION, MIXELM=0) 
 =  9.558    (WHEN MIN. R.F.=1)  AT K=   1, I=   1, J=  99


 TOTAL NUMBER OF POINT SOURCES/SINKS PRESENT IN THE FLOW MODEL =       100

 MAXIMUM STEPSIZE WHICH MEETS STABILITY CRITERION OF THE SINK & SOURCE TERM
 =  122.8    (WHEN MIN. R.F.=1)  AT K=   1, I=   1, J=   1

 MAXIMUM STEPSIZE WHICH MEETS STABILITY CRITERION OF THE DISPERSION TERM
 =  2.183    (WHEN MIN. R.F.=1)  AT K=   1, I=   1, J=  99
     5 CALLS TO GCG PACKAGE FOR TRANSPORT TIME STEP  12 IN FLOW TIME STEP   1 STRESS PERIOD   8
    15 TOTAL ITERATIONS
 
 SOLVING FOR HEAD 


     2 CALLS TO PCG ROUTINE FOR TIME STEP   1 IN STRESS PERIOD    8
    20 TOTAL ITERATIONS

 MAXIMUM HEAD CHANGE FOR EACH ITERATION (1 INDICATES THE FIRST INNER ITERATION):

    HEAD CHANGE    HEAD CHANGE    HEAD CHANGE    HEAD CHANGE    HEAD CHANGE 
   LAYER,ROW,COL  LAYER,ROW,COL  LAYER,ROW,COL  LAYER,ROW,COL  LAYER,ROW,COL
 ---------------------------------------------------------------------------
  1  0.7175E-03  0  0.2115E-03  0  0.1169E-03  0  0.6697E-04  0  0.4791E-04
   ( 50,  1, 40)  ( 48,  1, 48)  ( 46,  1, 54)  ( 43,  1, 59)  ( 40,  1, 63)
  0  0.2607E-04  0 -0.1622E-04  0 -0.1008E-04  0 -0.5802E-05  0 -0.4350E-05
   ( 50,  1, 59)  (  1,  1, 69)  (  1,  1, 67)  (  1,  1, 45)  (  1,  1, 50)
  0 -0.3619E-05  0 -0.2694E-05  0 -0.1979E-05  0 -0.1389E-05  0 -0.1164E-05
   (  2,  1, 38)  (  1,  1, 42)  (  6,  1, 27)  (  5,  1,  5)  (  2,  1,  8)
  0 -0.1215E-05  0 -0.1339E-05  0 -0.1205E-05  0 -0.9400E-06  1 -0.2224E-06
   (  1,  1, 13)  (  4,  1,  2)  (  1,  1,  4)  ( 49,  1, 11)  ( 45,  1, 12)

 MAXIMUM RESIDUAL FOR EACH ITERATION (1 INDICATES THE FIRST INNER ITERATION):

    RESIDUAL       RESIDUAL       RESIDUAL       RESIDUAL       RESIDUAL    
   LAYER,ROW,COL  LAYER,ROW,COL  LAYER,ROW,COL  LAYER,ROW,COL  LAYER,ROW,COL
 ---------------------------------------------------------------------------
  1   5.318      0   3.363      0  -1.638      0 -0.9736      0 -0.7868    
   ( 50,  1, 42)  ( 50,  1, 35)  ( 49,  1, 34)  ( 50,  1, 54)  ( 50,  1, 33)
  0 -0.4273      0 -0.3027      0  0.1665      0  0.9247E-01  0  0.6594E-01
   ( 49,  1, 43)  ( 49,  1, 39)  ( 50,  1, 33)  ( 49,  1, 44)  ( 49,  1, 39)
  0  0.4332E-01  0 -0.4040E-01  0 -0.3154E-01  0  0.2598E-01  0  0.1708E-01
   ( 41,  1,  1)  ( 42,  1,  2)  ( 44,  1,  2)  ( 42,  1,  2)  ( 45,  1,  2)
  0  0.1839E-01  0 -0.1777E-01  0 -0.1555E-01  0  0.1546E-01  1 -0.7074E-02
   (  1,  1, 99)  ( 44,  1,  2)  (  2,  1, 99)  ( 44,  1,  2)  (  1,  1, 99)


 FLOW MODEL IS TRANSIENT
 FLOW MODEL CONTAINS CONSTANT-HEAD CELLS


 MAXIMUM STEPSIZE DURING WHICH ANY PARTICLE CANNOT MOVE MORE THAN ONE CELL
 =  9.810    (WHEN MIN. R.F.=1)  AT K=   1, I=   1, J=  99

 MAXIMUM STEPSIZE WHICH MEETS STABILITY CRITERION OF THE ADVECTION TERM
 (FOR PURE FINITE-DIFFERENCE OPTION, MIXELM=0) 
 =  9.560    (WHEN MIN. R.F.=1)  AT K=   1, I=   1, J=  99


 TOTAL NUMBER OF POINT SOURCES/SINKS PRESENT IN THE FLOW MODEL =       100

 MAXIMUM STEPSIZE WHICH MEETS STABILITY CRITERION OF THE SINK & SOURCE TERM
 =  122.8    (WHEN MIN. R.F.=1)  AT K=   1, I=   1, J=   1

 MAXIMUM STEPSIZE WHICH MEETS STABILITY CRITERION OF THE DISPERSION TERM
 =  2.184    (WHEN MIN. R.F.=1)  AT K=   1, I=   1, J=  99
     5 CALLS TO GCG PACKAGE FOR TRANSPORT TIME STEP  13 IN FLOW TIME STEP   1 STRESS PERIOD   8
    15 TOTAL ITERATIONS
 
 SOLVING FOR HEAD 


     2 CALLS TO PCG ROUTINE FOR TIME STEP   1 IN STRESS PERIOD    8
    20 TOTAL ITERATIONS

 MAXIMUM HEAD CHANGE FOR EACH ITERATION (1 INDICATES THE FIRST INNER ITERATION):

    HEAD CHANGE    HEAD CHANGE    HEAD CHANGE    HEAD CHANGE    HEAD CHANGE 
   LAYER,ROW,COL  LAYER,ROW,COL  LAYER,ROW,COL  LAYER,ROW,COL  LAYER,ROW,COL
 ---------------------------------------------------------------------------
  1  0.7159E-03  0  0.2108E-03  0  0.1165E-03  0  0.6675E-04  0  0.4780E-04
   ( 50,  1, 40)  ( 48,  1, 48)  ( 46,  1, 54)  ( 43,  1, 59)  ( 40,  1, 63)
  0  0.2600E-04  0 -0.1614E-04  0 -0.1008E-04  0 -0.5767E-05  0 -0.4305E-05
   ( 50,  1, 59)  (  1,  1, 69)  (  1,  1, 67)  (  1,  1, 45)  (  1,  1, 50)
  0 -0.3543E-05  0 -0.2625E-05  0 -0.1900E-05  0 -0.1312E-05  0 -0.1074E-05
   (  2,  1, 38)  (  1,  1, 42)  (  6,  1, 27)  (  5,  1,  4)  (  2,  1,  8)
  0 -0.1099E-05  0 -0.1209E-05  0 -0.1117E-05  0 -0.8406E-06  1 -0.2103E-06
   (  1,  1, 13)  (  4,  1,  1)  (  1,  1,  4)  ( 49,  1, 11)  ( 45,  1, 12)

 MAXIMUM RESIDUAL FOR EACH ITERATION (1 INDICATES THE FIRST INNER ITERATION):

    RESIDUAL       RESIDUAL       RESIDUAL       RESIDUAL       RESIDUAL    
   LAYER,ROW,COL  LAYER,ROW,COL  LAYER,ROW,COL  LAYER,ROW,COL  LAYER,ROW,COL
 ---------------------------------------------------------------------------
  1   5.302      0   3.354      0  -1.659      0 -0.9707      0 -0.7859    
   ( 50,  1, 42)  ( 50,  1, 35)  ( 49,  1, 34)  ( 50,  1, 54)  ( 50,  1, 32)
  0 -0.4258      0 -0.3026      0  0.1658      0  0.9207E-01  0  0.6532E-01
   ( 49,  1, 43)  ( 49,  1, 39)  ( 50,  1, 33)  ( 49,  1, 43)  ( 49,  1, 39)
  0  0.4282E-01  0 -0.3999E-01  0 -0.3080E-01  0  0.2475E-01  0  0.1578E-01
   ( 41,  1,  1)  ( 42,  1,  2)  ( 44,  1,  2)  ( 42,  1,  2)  ( 45,  1,  2)
  0  0.1646E-01  0 -0.1609E-01  0 -0.1442E-01  0  0.1439E-01  1 -0.6472E-02
   (  1,  1, 99)  ( 44,  1,  2)  (  2,  1, 99)  ( 44,  1,  2)  (  1,  1, 99)


 FLOW MODEL IS TRANSIENT
 FLOW MODEL CONTAINS CONSTANT-HEAD CELLS


 MAXIMUM STEPSIZE DURING WHICH ANY PARTICLE CANNOT MOVE MORE THAN ONE CELL
 =  9.813    (WHEN MIN. R.F.=1)  AT K=   1, I=   1, J=  99

 MAXIMUM STEPSIZE WHICH MEETS STABILITY CRITERION OF THE ADVECTION TERM
 (FOR PURE FINITE-DIFFERENCE OPTION, MIXELM=0) 
 =  9.563    (WHEN MIN. R.F.=1)  AT K=   1, I=   1, J=  99


 TOTAL NUMBER OF POINT SOURCES/SINKS PRESENT IN THE FLOW MODEL =       100

 MAXIMUM STEPSIZE WHICH MEETS STABILITY CRITERION OF THE SINK & SOURCE TERM
 =  122.8    (WHEN MIN. R.F.=1)  AT K=   1, I=   1, J=   1

 MAXIMUM STEPSIZE WHICH MEETS STABILITY CRITERION OF THE DISPERSION TERM
 =  2.184    (WHEN MIN. R.F.=1)  AT K=   1, I=   1, J=  99
     5 CALLS TO GCG PACKAGE FOR TRANSPORT TIME STEP  14 IN FLOW TIME STEP   1 STRESS PERIOD   8
    15 TOTAL ITERATIONS
 
 SOLVING FOR HEAD 


     2 CALLS TO PCG ROUTINE FOR TIME STEP   1 IN STRESS PERIOD    8
    20 TOTAL ITERATIONS

 MAXIMUM HEAD CHANGE FOR EACH ITERATION (1 INDICATES THE FIRST INNER ITERATION):

    HEAD CHANGE    HEAD CHANGE    HEAD CHANGE    HEAD CHANGE    HEAD CHANGE 
   LAYER,ROW,COL  LAYER,ROW,COL  LAYER,ROW,COL  LAYER,ROW,COL  LAYER,ROW,COL
 ---------------------------------------------------------------------------
  1  0.7140E-03  0  0.2101E-03  0  0.1162E-03  0  0.6656E-04  0  0.4767E-04
   ( 50,  1, 40)  ( 48,  1, 48)  ( 46,  1, 54)  ( 43,  1, 59)  ( 40,  1, 63)
  0  0.2594E-04  0 -0.1602E-04  0 -0.1009E-04  0 -0.5744E-05  0 -0.4283E-05
   ( 50,  1, 59)  (  1,  1, 69)  (  1,  1, 67)  (  1,  1, 45)  (  1,  1, 50)
  0 -0.3524E-05  0 -0.2621E-05  0 -0.1896E-05  0 -0.1312E-05  0 -0.1068E-05
   (  2,  1, 38)  (  1,  1, 41)  (  6,  1, 26)  (  6,  1,  5)  (  2,  1,  8)
  0 -0.1090E-05  0 -0.1194E-05  0 -0.1106E-05  0 -0.8314E-06  1 -0.2089E-06
   (  1,  1, 13)  (  4,  1,  1)  (  1,  1,  4)  ( 49,  1, 11)  ( 45,  1, 12)

 MAXIMUM RESIDUAL FOR EACH ITERATION (1 INDICATES THE FIRST INNER ITERATION):

    RESIDUAL       RESIDUAL       RESIDUAL       RESIDUAL       RESIDUAL    
   LAYER,ROW,COL  LAYER,ROW,COL  LAYER,ROW,COL  LAYER,ROW,COL  LAYER,ROW,COL
 ---------------------------------------------------------------------------
  1   5.281      0   3.340      0  -1.675      0 -0.9690      0 -0.7866    
   ( 50,  1, 42)  ( 50,  1, 35)  ( 49,  1, 34)  ( 50,  1, 54)  ( 50,  1, 32)
  0 -0.4254      0 -0.3030      0  0.1648      0  0.9186E-01  0  0.6507E-01
   ( 49,  1, 43)  ( 49,  1, 39)  ( 50,  1, 33)  ( 49,  1, 43)  ( 49,  1, 39)
  0  0.4288E-01  0 -0.4018E-01  0 -0.3064E-01  0  0.2462E-01  0  0.1572E-01
   ( 41,  1,  1)  ( 42,  1,  2)  ( 44,  1,  2)  ( 42,  1,  2)  ( 45,  1,  2)
  0  0.1618E-01  0 -0.1588E-01  0 -0.1438E-01  0  0.1425E-01  1 -0.6360E-02
   (  1,  1, 99)  ( 44,  1,  2)  (  2,  1, 99)  ( 44,  1,  2)  (  1,  1, 99)


 FLOW MODEL IS TRANSIENT
 FLOW MODEL CONTAINS CONSTANT-HEAD CELLS


 MAXIMUM STEPSIZE DURING WHICH ANY PARTICLE CANNOT MOVE MORE THAN ONE CELL
 =  9.816    (WHEN MIN. R.F.=1)  AT K=   1, I=   1, J=  99

 MAXIMUM STEPSIZE WHICH MEETS STABILITY CRITERION OF THE ADVECTION TERM
 (FOR PURE FINITE-DIFFERENCE OPTION, MIXELM=0) 
 =  9.566    (WHEN MIN. R.F.=1)  AT K=   1, I=   1, J=  99


 TOTAL NUMBER OF POINT SOURCES/SINKS PRESENT IN THE FLOW MODEL =       100

 MAXIMUM STEPSIZE WHICH MEETS STABILITY CRITERION OF THE SINK & SOURCE TERM
 =  122.8    (WHEN MIN. R.F.=1)  AT K=   1, I=   1, J=   1

 MAXIMUM STEPSIZE WHICH MEETS STABILITY CRITERION OF THE DISPERSION TERM
 =  2.185    (WHEN MIN. R.F.=1)  AT K=   1, I=   1, J=  99
     5 CALLS TO GCG PACKAGE FOR TRANSPORT TIME STEP  15 IN FLOW TIME STEP   1 STRESS PERIOD   8
    15 TOTAL ITERATIONS
 
 SOLVING FOR HEAD 


     2 CALLS TO PCG ROUTINE FOR TIME STEP   1 IN STRESS PERIOD    8
    20 TOTAL ITERATIONS

 MAXIMUM HEAD CHANGE FOR EACH ITERATION (1 INDICATES THE FIRST INNER ITERATION):

    HEAD CHANGE    HEAD CHANGE    HEAD CHANGE    HEAD CHANGE    HEAD CHANGE 
   LAYER,ROW,COL  LAYER,ROW,COL  LAYER,ROW,COL  LAYER,ROW,COL  LAYER,ROW,COL
 ---------------------------------------------------------------------------
  1  0.7121E-03  0  0.2094E-03  0  0.1158E-03  0  0.6633E-04  0  0.4756E-04
   ( 50,  1, 40)  ( 48,  1, 48)  ( 46,  1, 54)  ( 43,  1, 59)  ( 40,  1, 62)
  0  0.2586E-04  0 -0.1600E-04  0 -0.1011E-04  0 -0.5752E-05  0 -0.4296E-05
   ( 50,  1, 59)  (  1,  1, 69)  (  1,  1, 67)  (  1,  1, 45)  (  1,  1, 50)
  0 -0.3539E-05  0 -0.2659E-05  0 -0.1941E-05  0 -0.1360E-05  0 -0.1119E-05
   (  2,  1, 38)  (  1,  1, 41)  (  6,  1, 26)  (  6,  1,  5)  (  2,  1,  8)
  0 -0.1155E-05  0 -0.1263E-05  0 -0.1153E-05  0 -0.8894E-06  1 -0.2153E-06
   (  1,  1, 13)  (  4,  1,  1)  (  1,  1,  4)  ( 49,  1, 11)  ( 45,  1, 12)

 MAXIMUM RESIDUAL FOR EACH ITERATION (1 INDICATES THE FIRST INNER ITERATION):

    RESIDUAL       RESIDUAL       RESIDUAL       RESIDUAL       RESIDUAL    
   LAYER,ROW,COL  LAYER,ROW,COL  LAYER,ROW,COL  LAYER,ROW,COL  LAYER,ROW,COL
 ---------------------------------------------------------------------------
  1   5.269      0   3.320      0  -1.690      0 -0.9692      0 -0.7879    
   ( 50,  1, 41)  ( 50,  1, 35)  ( 49,  1, 34)  ( 50,  1, 54)  ( 50,  1, 32)
  0 -0.4248      0 -0.3032      0  0.1632      0  0.9211E-01  0  0.6501E-01
   ( 49,  1, 43)  ( 49,  1, 39)  ( 50,  1, 33)  ( 49,  1, 43)  ( 49,  1, 39)
  0  0.4322E-01  0 -0.4074E-01  0 -0.3089E-01  0  0.2517E-01  0  0.1649E-01
   ( 41,  1,  1)  ( 42,  1,  2)  ( 44,  1,  2)  ( 42,  1,  2)  ( 45,  1,  2)
  0  0.1702E-01  0 -0.1673E-01  0 -0.1517E-01  0  0.1485E-01  1 -0.6638E-02
   (  1,  1, 99)  ( 44,  1,  2)  (  2,  1, 99)  ( 44,  1,  2)  (  1,  1, 99)


 FLOW MODEL IS TRANSIENT
 FLOW MODEL CONTAINS CONSTANT-HEAD CELLS


 MAXIMUM STEPSIZE DURING WHICH ANY PARTICLE CANNOT MOVE MORE THAN ONE CELL
 =  9.819    (WHEN MIN. R.F.=1)  AT K=   1, I=   1, J=  99

 MAXIMUM STEPSIZE WHICH MEETS STABILITY CRITERION OF THE ADVECTION TERM
 (FOR PURE FINITE-DIFFERENCE OPTION, MIXELM=0) 
 =  9.569    (WHEN MIN. R.F.=1)  AT K=   1, I=   1, J=  99


 TOTAL NUMBER OF POINT SOURCES/SINKS PRESENT IN THE FLOW MODEL =       100

 MAXIMUM STEPSIZE WHICH MEETS STABILITY CRITERION OF THE SINK & SOURCE TERM
 =  122.8    (WHEN MIN. R.F.=1)  AT K=   1, I=   1, J=   1

 MAXIMUM STEPSIZE WHICH MEETS STABILITY CRITERION OF THE DISPERSION TERM
 =  2.186    (WHEN MIN. R.F.=1)  AT K=   1, I=   1, J=  99
     5 CALLS TO GCG PACKAGE FOR TRANSPORT TIME STEP  16 IN FLOW TIME STEP   1 STRESS PERIOD   8
    15 TOTAL ITERATIONS
 
 SOLVING FOR HEAD 


     2 CALLS TO PCG ROUTINE FOR TIME STEP   1 IN STRESS PERIOD    8
    16 TOTAL ITERATIONS

 MAXIMUM HEAD CHANGE FOR EACH ITERATION (1 INDICATES THE FIRST INNER ITERATION):

    HEAD CHANGE    HEAD CHANGE    HEAD CHANGE    HEAD CHANGE    HEAD CHANGE 
   LAYER,ROW,COL  LAYER,ROW,COL  LAYER,ROW,COL  LAYER,ROW,COL  LAYER,ROW,COL
 ---------------------------------------------------------------------------
  1  0.7098E-03  0  0.2086E-03  0  0.1153E-03  0  0.6613E-04  0  0.4746E-04
   ( 50,  1, 40)  ( 48,  1, 48)  ( 46,  1, 54)  ( 43,  1, 59)  ( 40,  1, 62)
  0  0.2578E-04  0 -0.1591E-04  0 -0.1007E-04  0 -0.5671E-05  0 -0.4220E-05
   ( 50,  1, 59)  (  1,  1, 69)  (  1,  1, 67)  (  1,  1, 45)  (  1,  1, 50)
  0 -0.3423E-05  0 -0.2551E-05  0 -0.1815E-05  0 -0.1234E-05  0 -0.9729E-06
   (  2,  1, 37)  (  1,  1, 41)  (  6,  1, 26)  (  6,  1,  5)  (  2,  1,  8)
  1 -0.2735E-06
   (  2,  1, 15)

 MAXIMUM RESIDUAL FOR EACH ITERATION (1 INDICATES THE FIRST INNER ITERATION):

    RESIDUAL       RESIDUAL       RESIDUAL       RESIDUAL       RESIDUAL    
   LAYER,ROW,COL  LAYER,ROW,COL  LAYER,ROW,COL  LAYER,ROW,COL  LAYER,ROW,COL
 ---------------------------------------------------------------------------
  1   5.260      0   3.293      0  -1.694      0 -0.9647      0 -0.7868    
   ( 50,  1, 41)  ( 50,  1, 35)  ( 49,  1, 34)  ( 50,  1, 54)  ( 50,  1, 32)
  0 -0.4228      0 -0.3026      0  0.1610      0  0.9159E-01  0  0.6416E-01
   ( 49,  1, 43)  ( 49,  1, 39)  ( 50,  1, 33)  ( 49,  1, 43)  ( 49,  1, 39)
  0  0.4239E-01  0 -0.3989E-01  0 -0.2975E-01  0  0.2325E-01  0  0.1436E-01
   ( 41,  1,  1)  ( 42,  1,  2)  ( 44,  1,  2)  ( 42,  1,  2)  ( 45,  1,  2)
  1  0.4899E-02
   (  1,  1, 98)


 FLOW MODEL IS TRANSIENT
 FLOW MODEL CONTAINS CONSTANT-HEAD CELLS


 MAXIMUM STEPSIZE DURING WHICH ANY PARTICLE CANNOT MOVE MORE THAN ONE CELL
 =  9.821    (WHEN MIN. R.F.=1)  AT K=   1, I=   1, J=  99

 MAXIMUM STEPSIZE WHICH MEETS STABILITY CRITERION OF THE ADVECTION TERM
 (FOR PURE FINITE-DIFFERENCE OPTION, MIXELM=0) 
 =  9.571    (WHEN MIN. R.F.=1)  AT K=   1, I=   1, J=  99


 TOTAL NUMBER OF POINT SOURCES/SINKS PRESENT IN THE FLOW MODEL =       100

 MAXIMUM STEPSIZE WHICH MEETS STABILITY CRITERION OF THE SINK & SOURCE TERM
 =  122.8    (WHEN MIN. R.F.=1)  AT K=   1, I=   1, J=   1

 MAXIMUM STEPSIZE WHICH MEETS STABILITY CRITERION OF THE DISPERSION TERM
 =  2.186    (WHEN MIN. R.F.=1)  AT K=   1, I=   1, J=  99
     5 CALLS TO GCG PACKAGE FOR TRANSPORT TIME STEP  17 IN FLOW TIME STEP   1 STRESS PERIOD   8
    15 TOTAL ITERATIONS
 
 SOLVING FOR HEAD 


     2 CALLS TO PCG ROUTINE FOR TIME STEP   1 IN STRESS PERIOD    8
    20 TOTAL ITERATIONS

 MAXIMUM HEAD CHANGE FOR EACH ITERATION (1 INDICATES THE FIRST INNER ITERATION):

    HEAD CHANGE    HEAD CHANGE    HEAD CHANGE    HEAD CHANGE    HEAD CHANGE 
   LAYER,ROW,COL  LAYER,ROW,COL  LAYER,ROW,COL  LAYER,ROW,COL  LAYER,ROW,COL
 ---------------------------------------------------------------------------
  1  0.7078E-03  0  0.2080E-03  0  0.1152E-03  0  0.6605E-04  0  0.4750E-04
   ( 50,  1, 40)  ( 48,  1, 48)  ( 46,  1, 53)  ( 43,  1, 58)  ( 40,  1, 62)
  0  0.2574E-04  0 -0.1593E-04  0 -0.1005E-04  0 -0.5680E-05  0 -0.4303E-05
   ( 50,  1, 58)  (  1,  1, 69)  (  1,  1, 67)  (  1,  1, 45)  (  1,  1, 50)
  0 -0.3551E-05  0 -0.2702E-05  0 -0.1967E-05  0 -0.1360E-05  0 -0.1131E-05
   (  2,  1, 37)  (  1,  1, 41)  (  6,  1, 26)  (  6,  1,  5)  (  2,  1,  8)
  0 -0.1179E-05  0 -0.1274E-05  0 -0.1150E-05  0 -0.9065E-06  1 -0.2180E-06
   (  1,  1, 12)  (  4,  1,  2)  (  1,  1,  4)  ( 49,  1, 10)  ( 45,  1, 12)

 MAXIMUM RESIDUAL FOR EACH ITERATION (1 INDICATES THE FIRST INNER ITERATION):

    RESIDUAL       RESIDUAL       RESIDUAL       RESIDUAL       RESIDUAL    
   LAYER,ROW,COL  LAYER,ROW,COL  LAYER,ROW,COL  LAYER,ROW,COL  LAYER,ROW,COL
 ---------------------------------------------------------------------------
  1   5.259      0   3.274      0  -1.700      0 -0.9641      0 -0.7870    
   ( 50,  1, 41)  ( 50,  1, 35)  ( 49,  1, 34)  ( 50,  1, 54)  ( 50,  1, 32)
  0 -0.4202      0 -0.3027      0  0.1639      0  0.9231E-01  0  0.6496E-01
   ( 49,  1, 43)  ( 49,  1, 39)  ( 50,  1, 32)  ( 49,  1, 43)  ( 49,  1, 39)
  0  0.4316E-01  0 -0.4152E-01  0  0.3089E-01  0  0.2494E-01  0  0.1685E-01
   ( 41,  1,  1)  ( 42,  1,  2)  ( 40,  1,  2)  ( 42,  1,  2)  ( 45,  1,  2)
  0  0.1721E-01  0 -0.1685E-01  0 -0.1545E-01  0  0.1489E-01  1 -0.6607E-02
   (  1,  1, 99)  ( 44,  1,  2)  (  2,  1, 99)  ( 44,  1,  2)  (  1,  1, 99)


 FLOW MODEL IS TRANSIENT
 FLOW MODEL CONTAINS CONSTANT-HEAD CELLS


 MAXIMUM STEPSIZE DURING WHICH ANY PARTICLE CANNOT MOVE MORE THAN ONE CELL
 =  9.824    (WHEN MIN. R.F.=1)  AT K=   1, I=   1, J=  99

 MAXIMUM STEPSIZE WHICH MEETS STABILITY CRITERION OF THE ADVECTION TERM
 (FOR PURE FINITE-DIFFERENCE OPTION, MIXELM=0) 
 =  9.574    (WHEN MIN. R.F.=1)  AT K=   1, I=   1, J=  99


 TOTAL NUMBER OF POINT SOURCES/SINKS PRESENT IN THE FLOW MODEL =       100

 MAXIMUM STEPSIZE WHICH MEETS STABILITY CRITERION OF THE SINK & SOURCE TERM
 =  122.8    (WHEN MIN. R.F.=1)  AT K=   1, I=   1, J=   1

 MAXIMUM STEPSIZE WHICH MEETS STABILITY CRITERION OF THE DISPERSION TERM
 =  2.187    (WHEN MIN. R.F.=1)  AT K=   1, I=   1, J=  99
     5 CALLS TO GCG PACKAGE FOR TRANSPORT TIME STEP  18 IN FLOW TIME STEP   1 STRESS PERIOD   8
    15 TOTAL ITERATIONS
 
 SOLVING FOR HEAD 


     2 CALLS TO PCG ROUTINE FOR TIME STEP   1 IN STRESS PERIOD    8
    16 TOTAL ITERATIONS

 MAXIMUM HEAD CHANGE FOR EACH ITERATION (1 INDICATES THE FIRST INNER ITERATION):

    HEAD CHANGE    HEAD CHANGE    HEAD CHANGE    HEAD CHANGE    HEAD CHANGE 
   LAYER,ROW,COL  LAYER,ROW,COL  LAYER,ROW,COL  LAYER,ROW,COL  LAYER,ROW,COL
 ---------------------------------------------------------------------------
  1  0.7057E-03  0  0.2074E-03  0  0.1149E-03  0  0.6587E-04  0  0.4731E-04
   ( 50,  1, 40)  ( 48,  1, 48)  ( 46,  1, 53)  ( 43,  1, 58)  ( 40,  1, 62)
  0  0.2570E-04  0 -0.1578E-04  0 -0.1012E-04  0 -0.5653E-05  0 -0.4203E-05
   ( 50,  1, 58)  (  1,  1, 69)  (  1,  1, 67)  (  1,  1, 45)  (  1,  1, 50)
  0 -0.3426E-05  0 -0.2561E-05  0 -0.1844E-05  0 -0.1260E-05  0 -0.9985E-06
   (  2,  1, 37)  (  1,  1, 41)  (  6,  1, 26)  (  6,  1,  5)  (  2,  1,  8)
  1 -0.2763E-06
   (  1,  1, 13)

 MAXIMUM RESIDUAL FOR EACH ITERATION (1 INDICATES THE FIRST INNER ITERATION):

    RESIDUAL       RESIDUAL       RESIDUAL       RESIDUAL       RESIDUAL    
   LAYER,ROW,COL  LAYER,ROW,COL  LAYER,ROW,COL  LAYER,ROW,COL  LAYER,ROW,COL
 ---------------------------------------------------------------------------
  1   5.245      0   3.256      0  -1.697      0 -0.9585      0 -0.7863    
   ( 50,  1, 41)  ( 50,  1, 34)  ( 49,  1, 34)  ( 50,  1, 53)  ( 50,  1, 32)
  0 -0.4185      0 -0.3014      0  0.1629      0  0.9151E-01  0  0.6392E-01
   ( 49,  1, 43)  ( 49,  1, 39)  ( 50,  1, 32)  ( 49,  1, 43)  ( 49,  1, 38)
  0  0.4264E-01  0 -0.4049E-01  0 -0.2971E-01  0  0.2343E-01  0  0.1485E-01
   ( 41,  1,  1)  ( 42,  1,  2)  ( 44,  1,  2)  ( 42,  1,  2)  ( 45,  1,  2)
  1  0.4941E-02
   (  1,  1, 98)


 FLOW MODEL IS TRANSIENT
 FLOW MODEL CONTAINS CONSTANT-HEAD CELLS


 MAXIMUM STEPSIZE DURING WHICH ANY PARTICLE CANNOT MOVE MORE THAN ONE CELL
 =  9.827    (WHEN MIN. R.F.=1)  AT K=   1, I=   1, J=  99

 MAXIMUM STEPSIZE WHICH MEETS STABILITY CRITERION OF THE ADVECTION TERM
 (FOR PURE FINITE-DIFFERENCE OPTION, MIXELM=0) 
 =  9.576    (WHEN MIN. R.F.=1)  AT K=   1, I=   1, J=  99


 TOTAL NUMBER OF POINT SOURCES/SINKS PRESENT IN THE FLOW MODEL =       100

 MAXIMUM STEPSIZE WHICH MEETS STABILITY CRITERION OF THE SINK & SOURCE TERM
 =  122.8    (WHEN MIN. R.F.=1)  AT K=   1, I=   1, J=   1

 MAXIMUM STEPSIZE WHICH MEETS STABILITY CRITERION OF THE DISPERSION TERM
 =  2.187    (WHEN MIN. R.F.=1)  AT K=   1, I=   1, J=  99
     5 CALLS TO GCG PACKAGE FOR TRANSPORT TIME STEP  19 IN FLOW TIME STEP   1 STRESS PERIOD   8
    15 TOTAL ITERATIONS
 
 SOLVING FOR HEAD 


     2 CALLS TO PCG ROUTINE FOR TIME STEP   1 IN STRESS PERIOD    8
    20 TOTAL ITERATIONS

 MAXIMUM HEAD CHANGE FOR EACH ITERATION (1 INDICATES THE FIRST INNER ITERATION):

    HEAD CHANGE    HEAD CHANGE    HEAD CHANGE    HEAD CHANGE    HEAD CHANGE 
   LAYER,ROW,COL  LAYER,ROW,COL  LAYER,ROW,COL  LAYER,ROW,COL  LAYER,ROW,COL
 ---------------------------------------------------------------------------
  1  0.7037E-03  0  0.2067E-03  0  0.1147E-03  0  0.6580E-04  0  0.4735E-04
   ( 50,  1, 39)  ( 48,  1, 47)  ( 46,  1, 53)  ( 43,  1, 58)  ( 40,  1, 62)
  0  0.2563E-04  0 -0.1584E-04  0 -0.1000E-04  0 -0.5615E-05  0 -0.4247E-05
   ( 50,  1, 58)  (  1,  1, 69)  (  1,  1, 67)  (  1,  1, 44)  (  1,  1, 49)
  0 -0.3475E-05  0 -0.2629E-05  0 -0.1898E-05  0 -0.1290E-05  0 -0.1048E-05
   (  2,  1, 37)  (  1,  1, 41)  (  6,  1, 26)  (  6,  1,  5)  (  1,  1,  6)
  0 -0.1072E-05  0 -0.1152E-05  0 -0.1065E-05  0 -0.8114E-06  1 -0.2053E-06
   (  1,  1, 12)  (  4,  1,  2)  (  1,  1,  4)  ( 49,  1, 10)  ( 45,  1, 12)

 MAXIMUM RESIDUAL FOR EACH ITERATION (1 INDICATES THE FIRST INNER ITERATION):

    RESIDUAL       RESIDUAL       RESIDUAL       RESIDUAL       RESIDUAL    
   LAYER,ROW,COL  LAYER,ROW,COL  LAYER,ROW,COL  LAYER,ROW,COL  LAYER,ROW,COL
 ---------------------------------------------------------------------------
  1   5.236      0   3.271      0  -1.685      0 -0.9575      0 -0.7865    
   ( 50,  1, 41)  ( 50,  1, 34)  ( 49,  1, 34)  ( 50,  1, 53)  ( 50,  1, 32)
  0 -0.4182      0 -0.3008      0  0.1661      0  0.9204E-01  0  0.6455E-01
   ( 49,  1, 42)  ( 49,  1, 39)  ( 50,  1, 32)  ( 49,  1, 43)  ( 49,  1, 38)
  0  0.4256E-01  0 -0.4126E-01  0  0.3057E-01  0  0.2380E-01  0  0.1570E-01
   ( 41,  1,  1)  ( 42,  1,  2)  ( 40,  1,  2)  ( 42,  1,  2)  ( 45,  1,  2)
  0  0.1530E-01  0 -0.1525E-01  0 -0.1438E-01  0  0.1383E-01  1 -0.5987E-02
   (  1,  1, 99)  ( 44,  1,  2)  (  2,  1, 99)  ( 44,  1,  2)  (  1,  1, 99)


 FLOW MODEL IS TRANSIENT
 FLOW MODEL CONTAINS CONSTANT-HEAD CELLS


 MAXIMUM STEPSIZE DURING WHICH ANY PARTICLE CANNOT MOVE MORE THAN ONE CELL
 =  9.830    (WHEN MIN. R.F.=1)  AT K=   1, I=   1, J=  99

 MAXIMUM STEPSIZE WHICH MEETS STABILITY CRITERION OF THE ADVECTION TERM
 (FOR PURE FINITE-DIFFERENCE OPTION, MIXELM=0) 
 =  9.579    (WHEN MIN. R.F.=1)  AT K=   1, I=   1, J=  99


 TOTAL NUMBER OF POINT SOURCES/SINKS PRESENT IN THE FLOW MODEL =       100

 MAXIMUM STEPSIZE WHICH MEETS STABILITY CRITERION OF THE SINK & SOURCE TERM
 =  122.8    (WHEN MIN. R.F.=1)  AT K=   1, I=   1, J=   1

 MAXIMUM STEPSIZE WHICH MEETS STABILITY CRITERION OF THE DISPERSION TERM
 =  2.188    (WHEN MIN. R.F.=1)  AT K=   1, I=   1, J=  99
     5 CALLS TO GCG PACKAGE FOR TRANSPORT TIME STEP  20 IN FLOW TIME STEP   1 STRESS PERIOD   8
    15 TOTAL ITERATIONS
 
 SOLVING FOR HEAD 


     2 CALLS TO PCG ROUTINE FOR TIME STEP   1 IN STRESS PERIOD    8
    20 TOTAL ITERATIONS

 MAXIMUM HEAD CHANGE FOR EACH ITERATION (1 INDICATES THE FIRST INNER ITERATION):

    HEAD CHANGE    HEAD CHANGE    HEAD CHANGE    HEAD CHANGE    HEAD CHANGE 
   LAYER,ROW,COL  LAYER,ROW,COL  LAYER,ROW,COL  LAYER,ROW,COL  LAYER,ROW,COL
 ---------------------------------------------------------------------------
  1  0.7027E-03  0  0.2062E-03  0  0.1144E-03  0  0.6558E-04  0  0.4709E-04
   ( 50,  1, 39)  ( 48,  1, 47)  ( 46,  1, 53)  ( 43,  1, 58)  ( 40,  1, 62)
  0  0.2551E-04  0 -0.1574E-04  0 -0.1016E-04  0 -0.5682E-05  0 -0.4255E-05
   ( 50,  1, 58)  (  1,  1, 69)  (  1,  1, 67)  (  1,  1, 44)  (  1,  1, 50)
  0 -0.3517E-05  0 -0.2673E-05  0 -0.1993E-05  0 -0.1412E-05  0 -0.1162E-05
   (  2,  1, 37)  (  1,  1, 41)  (  6,  1, 26)  (  6,  1,  5)  (  2,  1,  8)
  0 -0.1215E-05  0 -0.1313E-05  0 -0.1181E-05  0 -0.9414E-06  1 -0.2184E-06
   (  1,  1, 12)  (  5,  1,  2)  (  1,  1,  4)  ( 49,  1, 10)  ( 45,  1, 12)

 MAXIMUM RESIDUAL FOR EACH ITERATION (1 INDICATES THE FIRST INNER ITERATION):

    RESIDUAL       RESIDUAL       RESIDUAL       RESIDUAL       RESIDUAL    
   LAYER,ROW,COL  LAYER,ROW,COL  LAYER,ROW,COL  LAYER,ROW,COL  LAYER,ROW,COL
 ---------------------------------------------------------------------------
  1   5.225      0   3.278      0  -1.664      0 -0.9543      0 -0.7852    
   ( 50,  1, 41)  ( 50,  1, 34)  ( 49,  1, 34)  ( 50,  1, 53)  ( 50,  1, 32)
  0 -0.4213      0 -0.2990      0  0.1655      0  0.9195E-01  0  0.6456E-01
   ( 49,  1, 42)  ( 49,  1, 39)  ( 50,  1, 32)  ( 49,  1, 43)  ( 49,  1, 38)
  0  0.4352E-01  0 -0.4197E-01  0  0.3167E-01  0  0.2533E-01  0  0.1742E-01
   ( 41,  1,  1)  ( 42,  1,  2)  ( 40,  1,  2)  ( 42,  1,  2)  ( 45,  1,  2)
  0  0.1719E-01  0 -0.1709E-01  0 -0.1616E-01  0  0.1529E-01  1 -0.6687E-02
   (  1,  1, 99)  ( 44,  1,  2)  (  2,  1, 99)  ( 44,  1,  2)  (  1,  1, 99)


 FLOW MODEL IS TRANSIENT
 FLOW MODEL CONTAINS CONSTANT-HEAD CELLS


 MAXIMUM STEPSIZE DURING WHICH ANY PARTICLE CANNOT MOVE MORE THAN ONE CELL
 =  9.832    (WHEN MIN. R.F.=1)  AT K=   1, I=   1, J=  99

 MAXIMUM STEPSIZE WHICH MEETS STABILITY CRITERION OF THE ADVECTION TERM
 (FOR PURE FINITE-DIFFERENCE OPTION, MIXELM=0) 
 =  9.582    (WHEN MIN. R.F.=1)  AT K=   1, I=   1, J=  99


 TOTAL NUMBER OF POINT SOURCES/SINKS PRESENT IN THE FLOW MODEL =       100

 MAXIMUM STEPSIZE WHICH MEETS STABILITY CRITERION OF THE SINK & SOURCE TERM
 =  122.8    (WHEN MIN. R.F.=1)  AT K=   1, I=   1, J=   1

 MAXIMUM STEPSIZE WHICH MEETS STABILITY CRITERION OF THE DISPERSION TERM
 =  2.188    (WHEN MIN. R.F.=1)  AT K=   1, I=   1, J=  99
     5 CALLS TO GCG PACKAGE FOR TRANSPORT TIME STEP  21 IN FLOW TIME STEP   1 STRESS PERIOD   8
    15 TOTAL ITERATIONS
 
 SOLVING FOR HEAD 


     2 CALLS TO PCG ROUTINE FOR TIME STEP   1 IN STRESS PERIOD    8
    16 TOTAL ITERATIONS

 MAXIMUM HEAD CHANGE FOR EACH ITERATION (1 INDICATES THE FIRST INNER ITERATION):

    HEAD CHANGE    HEAD CHANGE    HEAD CHANGE    HEAD CHANGE    HEAD CHANGE 
   LAYER,ROW,COL  LAYER,ROW,COL  LAYER,ROW,COL  LAYER,ROW,COL  LAYER,ROW,COL
 ---------------------------------------------------------------------------
  1  0.7012E-03  0  0.2055E-03  0  0.1142E-03  0  0.6551E-04  0  0.4711E-04
   ( 50,  1, 39)  ( 48,  1, 47)  ( 46,  1, 53)  ( 43,  1, 58)  ( 40,  1, 62)
  0  0.2545E-04  0 -0.1568E-04  0 -0.1009E-04  0 -0.5612E-05  0 -0.4174E-05
   ( 50,  1, 58)  (  1,  1, 69)  (  1,  1, 67)  (  1,  1, 44)  (  1,  1, 49)
  0 -0.3366E-05  0 -0.2520E-05  0 -0.1825E-05  0 -0.1243E-05  0 -0.9711E-06
   (  2,  1, 37)  (  1,  1, 41)  (  6,  1, 26)  (  6,  1,  5)  (  1,  1,  6)
  1 -0.2717E-06
   (  1,  1, 13)

 MAXIMUM RESIDUAL FOR EACH ITERATION (1 INDICATES THE FIRST INNER ITERATION):

    RESIDUAL       RESIDUAL       RESIDUAL       RESIDUAL       RESIDUAL    
   LAYER,ROW,COL  LAYER,ROW,COL  LAYER,ROW,COL  LAYER,ROW,COL  LAYER,ROW,COL
 ---------------------------------------------------------------------------
  1   5.208      0   3.278      0  -1.641      0 -0.9520      0 -0.7809    
   ( 50,  1, 41)  ( 50,  1, 34)  ( 49,  1, 34)  ( 50,  1, 53)  ( 50,  1, 32)
  0 -0.4202      0 -0.2985      0  0.1654      0  0.9098E-01  0  0.6363E-01
   ( 49,  1, 42)  ( 49,  1, 39)  ( 50,  1, 32)  ( 49,  1, 43)  ( 49,  1, 38)
  0  0.4228E-01  0 -0.4081E-01  0  0.2984E-01  0  0.2291E-01  0  0.1460E-01
   ( 41,  1,  1)  ( 42,  1,  2)  ( 40,  1,  2)  ( 42,  1,  2)  ( 45,  1,  2)
  1  0.4688E-02
   (  1,  1, 97)


 FLOW MODEL IS TRANSIENT
 FLOW MODEL CONTAINS CONSTANT-HEAD CELLS


 MAXIMUM STEPSIZE DURING WHICH ANY PARTICLE CANNOT MOVE MORE THAN ONE CELL
 =  9.835    (WHEN MIN. R.F.=1)  AT K=   1, I=   1, J=  99

 MAXIMUM STEPSIZE WHICH MEETS STABILITY CRITERION OF THE ADVECTION TERM
 (FOR PURE FINITE-DIFFERENCE OPTION, MIXELM=0) 
 =  9.584    (WHEN MIN. R.F.=1)  AT K=   1, I=   1, J=  99


 TOTAL NUMBER OF POINT SOURCES/SINKS PRESENT IN THE FLOW MODEL =       100

 MAXIMUM STEPSIZE WHICH MEETS STABILITY CRITERION OF THE SINK & SOURCE TERM
 =  122.8    (WHEN MIN. R.F.=1)  AT K=   1, I=   1, J=   1

 MAXIMUM STEPSIZE WHICH MEETS STABILITY CRITERION OF THE DISPERSION TERM
 =  2.189    (WHEN MIN. R.F.=1)  AT K=   1, I=   1, J=  99
     5 CALLS TO GCG PACKAGE FOR TRANSPORT TIME STEP  22 IN FLOW TIME STEP   1 STRESS PERIOD   8
    15 TOTAL ITERATIONS
 
 SOLVING FOR HEAD 


     2 CALLS TO PCG ROUTINE FOR TIME STEP   1 IN STRESS PERIOD    8
    16 TOTAL ITERATIONS

 MAXIMUM HEAD CHANGE FOR EACH ITERATION (1 INDICATES THE FIRST INNER ITERATION):

    HEAD CHANGE    HEAD CHANGE    HEAD CHANGE    HEAD CHANGE    HEAD CHANGE 
   LAYER,ROW,COL  LAYER,ROW,COL  LAYER,ROW,COL  LAYER,ROW,COL  LAYER,ROW,COL
 ---------------------------------------------------------------------------
  1  0.6997E-03  0  0.2047E-03  0  0.1138E-03  0  0.6526E-04  0  0.4696E-04
   ( 50,  1, 39)  ( 48,  1, 47)  ( 46,  1, 53)  ( 43,  1, 58)  ( 40,  1, 62)
  0  0.2543E-04  0 -0.1567E-04  0 -0.1004E-04  0 -0.5562E-05  0 -0.4193E-05
   ( 50,  1, 58)  (  1,  1, 69)  (  1,  1, 67)  (  1,  1, 44)  (  1,  1, 49)
  0 -0.3396E-05  0 -0.2577E-05  0  0.1858E-05  0 -0.1251E-05  0 -0.9980E-06
   (  2,  1, 37)  (  1,  1, 40)  (  1,  1, 84)  (  6,  1,  5)  (  1,  1,  6)
  1 -0.2715E-06
   (  1,  1, 13)

 MAXIMUM RESIDUAL FOR EACH ITERATION (1 INDICATES THE FIRST INNER ITERATION):

    RESIDUAL       RESIDUAL       RESIDUAL       RESIDUAL       RESIDUAL    
   LAYER,ROW,COL  LAYER,ROW,COL  LAYER,ROW,COL  LAYER,ROW,COL  LAYER,ROW,COL
 ---------------------------------------------------------------------------
  1   5.193      0   3.281      0  -1.614      0 -0.9530      0 -0.7786    
   ( 50,  1, 41)  ( 50,  1, 34)  ( 49,  1, 34)  ( 50,  1, 53)  ( 50,  1, 32)
  0 -0.4198      0 -0.2984      0  0.1672      0  0.9140E-01  0  0.6406E-01
   ( 49,  1, 42)  ( 49,  1, 38)  ( 50,  1, 32)  ( 49,  1, 43)  ( 49,  1, 38)
  0  0.4226E-01  0 -0.4134E-01  0  0.3077E-01  0  0.2299E-01  0  0.1506E-01
   ( 41,  1,  1)  ( 42,  1,  2)  ( 40,  1,  2)  ( 42,  1,  2)  ( 45,  1,  2)
  1  0.4836E-02
   (  1,  1, 97)


 FLOW MODEL IS TRANSIENT
 FLOW MODEL CONTAINS CONSTANT-HEAD CELLS


 MAXIMUM STEPSIZE DURING WHICH ANY PARTICLE CANNOT MOVE MORE THAN ONE CELL
 =  9.838    (WHEN MIN. R.F.=1)  AT K=   1, I=   1, J=  99

 MAXIMUM STEPSIZE WHICH MEETS STABILITY CRITERION OF THE ADVECTION TERM
 (FOR PURE FINITE-DIFFERENCE OPTION, MIXELM=0) 
 =  9.587    (WHEN MIN. R.F.=1)  AT K=   1, I=   1, J=  99


 TOTAL NUMBER OF POINT SOURCES/SINKS PRESENT IN THE FLOW MODEL =       100

 MAXIMUM STEPSIZE WHICH MEETS STABILITY CRITERION OF THE SINK & SOURCE TERM
 =  122.8    (WHEN MIN. R.F.=1)  AT K=   1, I=   1, J=   1

 MAXIMUM STEPSIZE WHICH MEETS STABILITY CRITERION OF THE DISPERSION TERM
 =  2.190    (WHEN MIN. R.F.=1)  AT K=   1, I=   1, J=  99
     5 CALLS TO GCG PACKAGE FOR TRANSPORT TIME STEP  23 IN FLOW TIME STEP   1 STRESS PERIOD   8
    15 TOTAL ITERATIONS
 
 SOLVING FOR HEAD 


     2 CALLS TO PCG ROUTINE FOR TIME STEP   1 IN STRESS PERIOD    8
    16 TOTAL ITERATIONS

 MAXIMUM HEAD CHANGE FOR EACH ITERATION (1 INDICATES THE FIRST INNER ITERATION):

    HEAD CHANGE    HEAD CHANGE    HEAD CHANGE    HEAD CHANGE    HEAD CHANGE 
   LAYER,ROW,COL  LAYER,ROW,COL  LAYER,ROW,COL  LAYER,ROW,COL  LAYER,ROW,COL
 ---------------------------------------------------------------------------
  1  0.6980E-03  0  0.2042E-03  0  0.1135E-03  0  0.6508E-04  0  0.4690E-04
   ( 50,  1, 39)  ( 48,  1, 47)  ( 46,  1, 53)  ( 43,  1, 58)  ( 40,  1, 61)
  0  0.2539E-04  0 -0.1556E-04  0 -0.1001E-04  0 -0.5528E-05  0 -0.4160E-05
   ( 50,  1, 58)  (  1,  1, 69)  (  1,  1, 67)  (  1,  1, 44)  (  1,  1, 49)
  0 -0.3378E-05  0 -0.2565E-05  0  0.1855E-05  0 -0.1247E-05  0 -0.9918E-06
   (  2,  1, 37)  (  1,  1, 40)  (  1,  1, 84)  (  6,  1,  5)  (  1,  1,  6)
  1 -0.2709E-06
   (  2,  1, 14)

 MAXIMUM RESIDUAL FOR EACH ITERATION (1 INDICATES THE FIRST INNER ITERATION):

    RESIDUAL       RESIDUAL       RESIDUAL       RESIDUAL       RESIDUAL    
   LAYER,ROW,COL  LAYER,ROW,COL  LAYER,ROW,COL  LAYER,ROW,COL  LAYER,ROW,COL
 ---------------------------------------------------------------------------
  1   5.177      0   3.277      0  -1.628      0 -0.9509      0 -0.7740    
   ( 50,  1, 41)  ( 50,  1, 34)  ( 49,  1, 33)  ( 50,  1, 53)  ( 50,  1, 32)
  0 -0.4192      0 -0.2989      0  0.1664      0  0.9100E-01  0  0.6377E-01
   ( 49,  1, 42)  ( 49,  1, 38)  ( 50,  1, 32)  ( 49,  1, 43)  ( 49,  1, 38)
  0  0.4218E-01  0 -0.4141E-01  0  0.3098E-01  0  0.2273E-01  0  0.1495E-01
   ( 41,  1,  1)  ( 42,  1,  2)  ( 40,  1,  2)  ( 42,  1,  2)  ( 45,  1,  2)
  1  0.4851E-02
   ( 33,  1,  3)


 FLOW MODEL IS TRANSIENT
 FLOW MODEL CONTAINS CONSTANT-HEAD CELLS


 MAXIMUM STEPSIZE DURING WHICH ANY PARTICLE CANNOT MOVE MORE THAN ONE CELL
 =  9.840    (WHEN MIN. R.F.=1)  AT K=   1, I=   1, J=  99

 MAXIMUM STEPSIZE WHICH MEETS STABILITY CRITERION OF THE ADVECTION TERM
 (FOR PURE FINITE-DIFFERENCE OPTION, MIXELM=0) 
 =  9.589    (WHEN MIN. R.F.=1)  AT K=   1, I=   1, J=  99


 TOTAL NUMBER OF POINT SOURCES/SINKS PRESENT IN THE FLOW MODEL =       100

 MAXIMUM STEPSIZE WHICH MEETS STABILITY CRITERION OF THE SINK & SOURCE TERM
 =  122.8    (WHEN MIN. R.F.=1)  AT K=   1, I=   1, J=   1

 MAXIMUM STEPSIZE WHICH MEETS STABILITY CRITERION OF THE DISPERSION TERM
 =  2.190    (WHEN MIN. R.F.=1)  AT K=   1, I=   1, J=  99
     5 CALLS TO GCG PACKAGE FOR TRANSPORT TIME STEP  24 IN FLOW TIME STEP   1 STRESS PERIOD   8
    15 TOTAL ITERATIONS
 
 SOLVING FOR HEAD 


     2 CALLS TO PCG ROUTINE FOR TIME STEP   1 IN STRESS PERIOD    8
    20 TOTAL ITERATIONS

 MAXIMUM HEAD CHANGE FOR EACH ITERATION (1 INDICATES THE FIRST INNER ITERATION):

    HEAD CHANGE    HEAD CHANGE    HEAD CHANGE    HEAD CHANGE    HEAD CHANGE 
   LAYER,ROW,COL  LAYER,ROW,COL  LAYER,ROW,COL  LAYER,ROW,COL  LAYER,ROW,COL
 ---------------------------------------------------------------------------
  1  0.6961E-03  0  0.2034E-03  0  0.1131E-03  0  0.6492E-04  0  0.4684E-04
   ( 50,  1, 39)  ( 48,  1, 47)  ( 46,  1, 53)  ( 43,  1, 58)  ( 40,  1, 61)
  0  0.2528E-04  0 -0.1555E-04  0 -0.1004E-04  0 -0.5548E-05  0 -0.4178E-05
   ( 50,  1, 58)  (  1,  1, 69)  (  1,  1, 67)  (  1,  1, 44)  (  1,  1, 49)
  0 -0.3377E-05  0 -0.2595E-05  0 -0.1884E-05  0 -0.1284E-05  0 -0.1028E-05
   (  2,  1, 37)  (  1,  1, 40)  (  6,  1, 25)  (  6,  1,  4)  (  1,  1,  6)
  0 -0.1044E-05  0 -0.1107E-05  0 -0.1029E-05  0 -0.7876E-06  1 -0.1988E-06
   (  1,  1, 12)  (  4,  1,  2)  (  1,  1,  5)  ( 49,  1, 10)  ( 45,  1, 12)

 MAXIMUM RESIDUAL FOR EACH ITERATION (1 INDICATES THE FIRST INNER ITERATION):

    RESIDUAL       RESIDUAL       RESIDUAL       RESIDUAL       RESIDUAL    
   LAYER,ROW,COL  LAYER,ROW,COL  LAYER,ROW,COL  LAYER,ROW,COL  LAYER,ROW,COL
 ---------------------------------------------------------------------------
  1   5.158      0   3.259      0  -1.650      0 -0.9498      0 -0.7749    
   ( 50,  1, 41)  ( 50,  1, 34)  ( 49,  1, 33)  ( 50,  1, 53)  ( 50,  1, 31)
  0 -0.4181      0 -0.2990      0  0.1654      0  0.9086E-01  0  0.6371E-01
   ( 49,  1, 42)  ( 49,  1, 38)  ( 50,  1, 32)  ( 49,  1, 42)  ( 49,  1, 38)
  0  0.4235E-01  0 -0.4182E-01  0  0.3166E-01  0  0.2315E-01  0  0.1554E-01
   ( 41,  1,  1)  ( 42,  1,  2)  ( 40,  1,  2)  ( 43,  1,  2)  ( 45,  1,  2)
  0  0.1445E-01  0  0.1515E-01  0 -0.1422E-01  0  0.1330E-01  1 -0.5593E-02
   (  1,  1, 98)  (  1,  1, 99)  (  2,  1, 99)  ( 44,  1,  2)  (  1,  1, 99)


 FLOW MODEL IS TRANSIENT
 FLOW MODEL CONTAINS CONSTANT-HEAD CELLS


 MAXIMUM STEPSIZE DURING WHICH ANY PARTICLE CANNOT MOVE MORE THAN ONE CELL
 =  9.843    (WHEN MIN. R.F.=1)  AT K=   1, I=   1, J=  99

 MAXIMUM STEPSIZE WHICH MEETS STABILITY CRITERION OF THE ADVECTION TERM
 (FOR PURE FINITE-DIFFERENCE OPTION, MIXELM=0) 
 =  9.592    (WHEN MIN. R.F.=1)  AT K=   1, I=   1, J=  99


 TOTAL NUMBER OF POINT SOURCES/SINKS PRESENT IN THE FLOW MODEL =       100

 MAXIMUM STEPSIZE WHICH MEETS STABILITY CRITERION OF THE SINK & SOURCE TERM
 =  122.8    (WHEN MIN. R.F.=1)  AT K=   1, I=   1, J=   1

 MAXIMUM STEPSIZE WHICH MEETS STABILITY CRITERION OF THE DISPERSION TERM
 =  2.191    (WHEN MIN. R.F.=1)  AT K=   1, I=   1, J=  99
     5 CALLS TO GCG PACKAGE FOR TRANSPORT TIME STEP  25 IN FLOW TIME STEP   1 STRESS PERIOD   8
    15 TOTAL ITERATIONS
 
 SOLVING FOR HEAD 


     2 CALLS TO PCG ROUTINE FOR TIME STEP   1 IN STRESS PERIOD    8
    20 TOTAL ITERATIONS

 MAXIMUM HEAD CHANGE FOR EACH ITERATION (1 INDICATES THE FIRST INNER ITERATION):

    HEAD CHANGE    HEAD CHANGE    HEAD CHANGE    HEAD CHANGE    HEAD CHANGE 
   LAYER,ROW,COL  LAYER,ROW,COL  LAYER,ROW,COL  LAYER,ROW,COL  LAYER,ROW,COL
 ---------------------------------------------------------------------------
  1  0.6943E-03  0  0.2030E-03  0  0.1129E-03  0  0.6478E-04  0  0.4668E-04
   ( 50,  1, 39)  ( 48,  1, 47)  ( 46,  1, 53)  ( 43,  1, 58)  ( 40,  1, 62)
  0  0.2511E-04  0 -0.1547E-04  0 -0.1018E-04  0 -0.5632E-05  0 -0.4192E-05
   ( 50,  1, 58)  (  1,  1, 70)  (  1,  1, 67)  (  1,  1, 44)  (  1,  1, 49)
  0 -0.3397E-05  0 -0.2621E-05  0 -0.1974E-05  0 -0.1371E-05  0 -0.1106E-05
   (  2,  1, 37)  (  1,  1, 40)  (  4,  1,  8)  (  6,  1,  4)  (  1,  1,  6)
  0 -0.1144E-05  0 -0.1223E-05  0 -0.1120E-05  0 -0.8869E-06  1 -0.2082E-06
   (  1,  1, 12)  (  4,  1,  2)  (  1,  1,  5)  ( 49,  1, 10)  ( 45,  1, 12)

 MAXIMUM RESIDUAL FOR EACH ITERATION (1 INDICATES THE FIRST INNER ITERATION):

    RESIDUAL       RESIDUAL       RESIDUAL       RESIDUAL       RESIDUAL    
   LAYER,ROW,COL  LAYER,ROW,COL  LAYER,ROW,COL  LAYER,ROW,COL  LAYER,ROW,COL
 ---------------------------------------------------------------------------
  1   5.143      0   3.243      0  -1.663      0 -0.9446      0 -0.7773    
   ( 50,  1, 40)  ( 50,  1, 34)  ( 49,  1, 33)  ( 50,  1, 53)  ( 50,  1, 31)
  0 -0.4171      0 -0.2997      0  0.1633      0  0.9104E-01  0  0.6326E-01
   ( 49,  1, 42)  ( 49,  1, 38)  ( 50,  1, 32)  ( 49,  1, 42)  ( 49,  1, 38)
  0  0.4291E-01  0 -0.4208E-01  0  0.3225E-01  0  0.2428E-01  0  0.1682E-01
   ( 41,  1,  1)  ( 42,  1,  2)  ( 40,  1,  2)  ( 43,  1,  2)  ( 45,  1,  2)
  0  0.1570E-01  0  0.1665E-01  0 -0.1563E-01  0  0.1448E-01  1 -0.6143E-02
   (  1,  1, 98)  (  1,  1, 99)  (  2,  1, 99)  ( 44,  1,  2)  (  1,  1, 99)


 FLOW MODEL IS TRANSIENT
 FLOW MODEL CONTAINS CONSTANT-HEAD CELLS


 MAXIMUM STEPSIZE DURING WHICH ANY PARTICLE CANNOT MOVE MORE THAN ONE CELL
 =  9.846    (WHEN MIN. R.F.=1)  AT K=   1, I=   1, J=  99

 MAXIMUM STEPSIZE WHICH MEETS STABILITY CRITERION OF THE ADVECTION TERM
 (FOR PURE FINITE-DIFFERENCE OPTION, MIXELM=0) 
 =  9.594    (WHEN MIN. R.F.=1)  AT K=   1, I=   1, J=  99


 TOTAL NUMBER OF POINT SOURCES/SINKS PRESENT IN THE FLOW MODEL =       100

 MAXIMUM STEPSIZE WHICH MEETS STABILITY CRITERION OF THE SINK & SOURCE TERM
 =  122.8    (WHEN MIN. R.F.=1)  AT K=   1, I=   1, J=   1

 MAXIMUM STEPSIZE WHICH MEETS STABILITY CRITERION OF THE DISPERSION TERM
 =  2.191    (WHEN MIN. R.F.=1)  AT K=   1, I=   1, J=  99
     5 CALLS TO GCG PACKAGE FOR TRANSPORT TIME STEP  26 IN FLOW TIME STEP   1 STRESS PERIOD   8
    15 TOTAL ITERATIONS
 
 SOLVING FOR HEAD 


     2 CALLS TO PCG ROUTINE FOR TIME STEP   1 IN STRESS PERIOD    8
    20 TOTAL ITERATIONS

 MAXIMUM HEAD CHANGE FOR EACH ITERATION (1 INDICATES THE FIRST INNER ITERATION):

    HEAD CHANGE    HEAD CHANGE    HEAD CHANGE    HEAD CHANGE    HEAD CHANGE 
   LAYER,ROW,COL  LAYER,ROW,COL  LAYER,ROW,COL  LAYER,ROW,COL  LAYER,ROW,COL
 ---------------------------------------------------------------------------
  1  0.6923E-03  0  0.2020E-03  0  0.1123E-03  0  0.6451E-04  0  0.4653E-04
   ( 50,  1, 39)  ( 48,  1, 47)  ( 46,  1, 53)  ( 43,  1, 58)  ( 40,  1, 61)
  0  0.2503E-04  0 -0.1547E-04  0 -0.1013E-04  0 -0.5601E-05  0 -0.4162E-05
   ( 50,  1, 58)  (  1,  1, 69)  (  1,  1, 67)  (  1,  1, 44)  (  1,  1, 49)
  0 -0.3334E-05  0 -0.2572E-05  0 -0.1919E-05  0 -0.1314E-05  0 -0.1040E-05
   (  2,  1, 36)  (  1,  1, 40)  (  4,  1,  8)  (  6,  1,  4)  (  1,  1,  6)
  0 -0.1060E-05  0 -0.1130E-05  0 -0.1056E-05  0 -0.8128E-06  1 -0.1984E-06
   (  1,  1, 12)  (  4,  1,  2)  (  1,  1,  5)  ( 49,  1, 10)  ( 45,  1, 12)

 MAXIMUM RESIDUAL FOR EACH ITERATION (1 INDICATES THE FIRST INNER ITERATION):

    RESIDUAL       RESIDUAL       RESIDUAL       RESIDUAL       RESIDUAL    
   LAYER,ROW,COL  LAYER,ROW,COL  LAYER,ROW,COL  LAYER,ROW,COL  LAYER,ROW,COL
 ---------------------------------------------------------------------------
  1   5.139      0   3.222      0  -1.669      0 -0.9434      0 -0.7768    
   ( 50,  1, 40)  ( 50,  1, 34)  ( 49,  1, 33)  ( 50,  1, 53)  ( 50,  1, 31)
  0 -0.4168      0 -0.3002      0  0.1615      0  0.9075E-01  0  0.6274E-01
   ( 49,  1, 42)  ( 49,  1, 38)  ( 50,  1, 32)  ( 49,  1, 42)  ( 49,  1, 38)
  0  0.4223E-01  0 -0.4147E-01  0  0.3170E-01  0  0.2351E-01  0  0.1590E-01
   ( 41,  1,  1)  ( 42,  1,  2)  ( 40,  1,  2)  ( 43,  1,  2)  ( 45,  1,  2)
  0  0.1454E-01  0  0.1567E-01  0 -0.1471E-01  0  0.1365E-01  1 -0.5720E-02
   (  1,  1, 98)  (  1,  1, 99)  (  2,  1, 99)  ( 44,  1,  2)  (  1,  1, 99)


 FLOW MODEL IS TRANSIENT
 FLOW MODEL CONTAINS CONSTANT-HEAD CELLS


 MAXIMUM STEPSIZE DURING WHICH ANY PARTICLE CANNOT MOVE MORE THAN ONE CELL
 =  9.848    (WHEN MIN. R.F.=1)  AT K=   1, I=   1, J=  99

 MAXIMUM STEPSIZE WHICH MEETS STABILITY CRITERION OF THE ADVECTION TERM
 (FOR PURE FINITE-DIFFERENCE OPTION, MIXELM=0) 
 =  9.597    (WHEN MIN. R.F.=1)  AT K=   1, I=   1, J=  99


 TOTAL NUMBER OF POINT SOURCES/SINKS PRESENT IN THE FLOW MODEL =       100

 MAXIMUM STEPSIZE WHICH MEETS STABILITY CRITERION OF THE SINK & SOURCE TERM
 =  122.8    (WHEN MIN. R.F.=1)  AT K=   1, I=   1, J=   1

 MAXIMUM STEPSIZE WHICH MEETS STABILITY CRITERION OF THE DISPERSION TERM
 =  2.192    (WHEN MIN. R.F.=1)  AT K=   1, I=   1, J=  99
     5 CALLS TO GCG PACKAGE FOR TRANSPORT TIME STEP  27 IN FLOW TIME STEP   1 STRESS PERIOD   8
    15 TOTAL ITERATIONS
 
 SOLVING FOR HEAD 


     2 CALLS TO PCG ROUTINE FOR TIME STEP   1 IN STRESS PERIOD    8
    20 TOTAL ITERATIONS

 MAXIMUM HEAD CHANGE FOR EACH ITERATION (1 INDICATES THE FIRST INNER ITERATION):

    HEAD CHANGE    HEAD CHANGE    HEAD CHANGE    HEAD CHANGE    HEAD CHANGE 
   LAYER,ROW,COL  LAYER,ROW,COL  LAYER,ROW,COL  LAYER,ROW,COL  LAYER,ROW,COL
 ---------------------------------------------------------------------------
  1  0.6902E-03  0  0.2013E-03  0  0.1120E-03  0  0.6438E-04  0  0.4647E-04
   ( 50,  1, 39)  ( 48,  1, 47)  ( 46,  1, 53)  ( 43,  1, 57)  ( 40,  1, 61)
  0  0.2495E-04  0 -0.1544E-04  0 -0.1013E-04  0 -0.5581E-05  0 -0.4160E-05
   ( 50,  1, 57)  (  1,  1, 69)  (  1,  1, 67)  (  1,  1, 44)  (  1,  1, 49)
  0 -0.3343E-05  0 -0.2588E-05  0 -0.1954E-05  0 -0.1341E-05  0 -0.1066E-05
   (  2,  1, 36)  (  1,  1, 40)  (  4,  1,  8)  (  6,  1,  4)  (  1,  1,  6)
  0 -0.1093E-05  0 -0.1167E-05  0 -0.1084E-05  0 -0.8465E-06  1 -0.2013E-06
   (  1,  1, 12)  (  4,  1,  2)  (  1,  1,  5)  ( 49,  1, 10)  ( 45,  1, 12)

 MAXIMUM RESIDUAL FOR EACH ITERATION (1 INDICATES THE FIRST INNER ITERATION):

    RESIDUAL       RESIDUAL       RESIDUAL       RESIDUAL       RESIDUAL    
   LAYER,ROW,COL  LAYER,ROW,COL  LAYER,ROW,COL  LAYER,ROW,COL  LAYER,ROW,COL
 ---------------------------------------------------------------------------
  1   5.135      0   3.198      0  -1.679      0 -0.9414      0 -0.7778    
   ( 50,  1, 40)  ( 50,  1, 34)  ( 49,  1, 33)  ( 50,  1, 52)  ( 50,  1, 31)
  0 -0.4154      0 -0.2997      0  0.1599      0  0.9062E-01  0  0.6238E-01
   ( 49,  1, 42)  ( 49,  1, 38)  ( 50,  1, 31)  ( 49,  1, 42)  ( 49,  1, 38)
  0  0.4237E-01  0 -0.4174E-01  0  0.3219E-01  0  0.2399E-01  0  0.1632E-01
   ( 41,  1,  1)  ( 42,  1,  2)  ( 40,  1,  2)  ( 43,  1,  2)  ( 45,  1,  2)
  0 -0.1499E-01  0  0.1620E-01  0 -0.1516E-01  0  0.1398E-01  1 -0.5859E-02
   ( 43,  1,  2)  (  1,  1, 99)  (  2,  1, 99)  ( 44,  1,  2)  (  1,  1, 99)


 FLOW MODEL IS TRANSIENT
 FLOW MODEL CONTAINS CONSTANT-HEAD CELLS


 MAXIMUM STEPSIZE DURING WHICH ANY PARTICLE CANNOT MOVE MORE THAN ONE CELL
 =  9.851    (WHEN MIN. R.F.=1)  AT K=   1, I=   1, J=  99

 MAXIMUM STEPSIZE WHICH MEETS STABILITY CRITERION OF THE ADVECTION TERM
 (FOR PURE FINITE-DIFFERENCE OPTION, MIXELM=0) 
 =  9.599    (WHEN MIN. R.F.=1)  AT K=   1, I=   1, J=  99


 TOTAL NUMBER OF POINT SOURCES/SINKS PRESENT IN THE FLOW MODEL =       100

 MAXIMUM STEPSIZE WHICH MEETS STABILITY CRITERION OF THE SINK & SOURCE TERM
 =  122.8    (WHEN MIN. R.F.=1)  AT K=   1, I=   1, J=   1

 MAXIMUM STEPSIZE WHICH MEETS STABILITY CRITERION OF THE DISPERSION TERM
 =  2.193    (WHEN MIN. R.F.=1)  AT K=   1, I=   1, J=  99
     5 CALLS TO GCG PACKAGE FOR TRANSPORT TIME STEP  28 IN FLOW TIME STEP   1 STRESS PERIOD   8
    15 TOTAL ITERATIONS
 
 SOLVING FOR HEAD 


     2 CALLS TO PCG ROUTINE FOR TIME STEP   1 IN STRESS PERIOD    8
    16 TOTAL ITERATIONS

 MAXIMUM HEAD CHANGE FOR EACH ITERATION (1 INDICATES THE FIRST INNER ITERATION):

    HEAD CHANGE    HEAD CHANGE    HEAD CHANGE    HEAD CHANGE    HEAD CHANGE 
   LAYER,ROW,COL  LAYER,ROW,COL  LAYER,ROW,COL  LAYER,ROW,COL  LAYER,ROW,COL
 ---------------------------------------------------------------------------
  1  0.6878E-03  0  0.2006E-03  0  0.1116E-03  0  0.6423E-04  0  0.4643E-04
   ( 50,  1, 39)  ( 48,  1, 47)  ( 46,  1, 52)  ( 43,  1, 57)  ( 40,  1, 61)
  0  0.2491E-04  0 -0.1533E-04  0 -0.1016E-04  0 -0.5548E-05  0 -0.4123E-05
   ( 50,  1, 57)  (  1,  1, 70)  (  1,  1, 67)  (  1,  1, 44)  (  1,  1, 49)
  0 -0.3289E-05  0 -0.2539E-05  0 -0.1892E-05  0 -0.1280E-05  0 -0.9986E-06
   (  2,  1, 36)  (  1,  1, 40)  (  4,  1,  8)  (  7,  1,  5)  (  1,  1,  6)
  1 -0.2619E-06
   (  1,  1, 12)

 MAXIMUM RESIDUAL FOR EACH ITERATION (1 INDICATES THE FIRST INNER ITERATION):

    RESIDUAL       RESIDUAL       RESIDUAL       RESIDUAL       RESIDUAL    
   LAYER,ROW,COL  LAYER,ROW,COL  LAYER,ROW,COL  LAYER,ROW,COL  LAYER,ROW,COL
 ---------------------------------------------------------------------------
  1   5.124      0   3.166      0  -1.676      0 -0.9400      0 -0.7763    
   ( 50,  1, 40)  ( 50,  1, 34)  ( 49,  1, 33)  ( 50,  1, 52)  ( 50,  1, 31)
  0 -0.4140      0 -0.2992      0  0.1605      0  0.9036E-01  0  0.6198E-01
   ( 49,  1, 42)  ( 49,  1, 38)  ( 50,  1, 31)  ( 49,  1, 42)  ( 49,  1, 37)
  0  0.4180E-01  0 -0.4128E-01  0  0.3165E-01  0  0.2316E-01  0  0.1540E-01
   ( 42,  1,  1)  ( 42,  1,  2)  ( 40,  1,  2)  ( 43,  1,  2)  ( 45,  1,  2)
  1  0.4750E-02
   ( 33,  1,  3)


 FLOW MODEL IS TRANSIENT
 FLOW MODEL CONTAINS CONSTANT-HEAD CELLS


 MAXIMUM STEPSIZE DURING WHICH ANY PARTICLE CANNOT MOVE MORE THAN ONE CELL
 =  9.853    (WHEN MIN. R.F.=1)  AT K=   1, I=   1, J=  99

 MAXIMUM STEPSIZE WHICH MEETS STABILITY CRITERION OF THE ADVECTION TERM
 (FOR PURE FINITE-DIFFERENCE OPTION, MIXELM=0) 
 =  9.602    (WHEN MIN. R.F.=1)  AT K=   1, I=   1, J=  99


 TOTAL NUMBER OF POINT SOURCES/SINKS PRESENT IN THE FLOW MODEL =       100

 MAXIMUM STEPSIZE WHICH MEETS STABILITY CRITERION OF THE SINK & SOURCE TERM
 =  122.8    (WHEN MIN. R.F.=1)  AT K=   1, I=   1, J=   1

 MAXIMUM STEPSIZE WHICH MEETS STABILITY CRITERION OF THE DISPERSION TERM
 =  2.193    (WHEN MIN. R.F.=1)  AT K=   1, I=   1, J=  99
     5 CALLS TO GCG PACKAGE FOR TRANSPORT TIME STEP  29 IN FLOW TIME STEP   1 STRESS PERIOD   8
    15 TOTAL ITERATIONS
 
 SOLVING FOR HEAD 


     2 CALLS TO PCG ROUTINE FOR TIME STEP   1 IN STRESS PERIOD    8
    20 TOTAL ITERATIONS

 MAXIMUM HEAD CHANGE FOR EACH ITERATION (1 INDICATES THE FIRST INNER ITERATION):

    HEAD CHANGE    HEAD CHANGE    HEAD CHANGE    HEAD CHANGE    HEAD CHANGE 
   LAYER,ROW,COL  LAYER,ROW,COL  LAYER,ROW,COL  LAYER,ROW,COL  LAYER,ROW,COL
 ---------------------------------------------------------------------------
  1  0.6858E-03  0  0.1998E-03  0  0.1112E-03  0  0.6391E-04  0  0.4618E-04
   ( 50,  1, 38)  ( 48,  1, 47)  ( 46,  1, 52)  ( 43,  1, 57)  ( 40,  1, 61)
  0  0.2488E-04  0 -0.1537E-04  0 -0.1009E-04  0 -0.5515E-05  0 -0.4160E-05
   ( 50,  1, 57)  (  1,  1, 69)  (  1,  1, 66)  (  1,  1, 44)  (  1,  1, 49)
  0 -0.3396E-05  0 -0.2665E-05  0 -0.1994E-05  0 -0.1364E-05  0 -0.1110E-05
   (  2,  1, 36)  (  1,  1, 40)  (  4,  1,  8)  (  6,  1,  4)  (  1,  1,  6)
  0 -0.1157E-05  0 -0.1242E-05  0 -0.1134E-05  0 -0.9104E-06  1 -0.2084E-06
   (  1,  1, 12)  (  3,  1,  2)  (  1,  1,  5)  ( 49,  1, 10)  ( 45,  1, 12)

 MAXIMUM RESIDUAL FOR EACH ITERATION (1 INDICATES THE FIRST INNER ITERATION):

    RESIDUAL       RESIDUAL       RESIDUAL       RESIDUAL       RESIDUAL    
   LAYER,ROW,COL  LAYER,ROW,COL  LAYER,ROW,COL  LAYER,ROW,COL  LAYER,ROW,COL
 ---------------------------------------------------------------------------
  1   5.116      0   3.172      0  -1.671      0 -0.9414      0 -0.7760    
   ( 50,  1, 40)  ( 50,  1, 33)  ( 49,  1, 33)  ( 50,  1, 52)  ( 50,  1, 31)
  0 -0.4124      0 -0.2989      0  0.1635      0  0.9087E-01  0  0.6295E-01
   ( 49,  1, 41)  ( 49,  1, 38)  ( 50,  1, 31)  ( 49,  1, 42)  ( 49,  1, 37)
  0  0.4240E-01  0 -0.4236E-01  0  0.3356E-01  0  0.2501E-01  0  0.1709E-01
   ( 42,  1,  1)  ( 42,  1,  2)  ( 40,  1,  2)  ( 43,  1,  2)  ( 45,  1,  2)
  0 -0.1611E-01  0  0.1723E-01  0 -0.1601E-01  0  0.1442E-01  1 -0.6066E-02
   ( 43,  1,  2)  (  1,  1, 99)  (  2,  1, 99)  ( 44,  1,  2)  (  1,  1, 99)


 FLOW MODEL IS TRANSIENT
 FLOW MODEL CONTAINS CONSTANT-HEAD CELLS


 MAXIMUM STEPSIZE DURING WHICH ANY PARTICLE CANNOT MOVE MORE THAN ONE CELL
 =  9.856    (WHEN MIN. R.F.=1)  AT K=   1, I=   1, J=  99

 MAXIMUM STEPSIZE WHICH MEETS STABILITY CRITERION OF THE ADVECTION TERM
 (FOR PURE FINITE-DIFFERENCE OPTION, MIXELM=0) 
 =  9.604    (WHEN MIN. R.F.=1)  AT K=   1, I=   1, J=  99


 TOTAL NUMBER OF POINT SOURCES/SINKS PRESENT IN THE FLOW MODEL =       100

 MAXIMUM STEPSIZE WHICH MEETS STABILITY CRITERION OF THE SINK & SOURCE TERM
 =  122.8    (WHEN MIN. R.F.=1)  AT K=   1, I=   1, J=   1

 MAXIMUM STEPSIZE WHICH MEETS STABILITY CRITERION OF THE DISPERSION TERM
 =  2.194    (WHEN MIN. R.F.=1)  AT K=   1, I=   1, J=  99
     5 CALLS TO GCG PACKAGE FOR TRANSPORT TIME STEP  30 IN FLOW TIME STEP   1 STRESS PERIOD   8
    15 TOTAL ITERATIONS
 
 SOLVING FOR HEAD 


     2 CALLS TO PCG ROUTINE FOR TIME STEP   1 IN STRESS PERIOD    8
    20 TOTAL ITERATIONS

 MAXIMUM HEAD CHANGE FOR EACH ITERATION (1 INDICATES THE FIRST INNER ITERATION):

    HEAD CHANGE    HEAD CHANGE    HEAD CHANGE    HEAD CHANGE    HEAD CHANGE 
   LAYER,ROW,COL  LAYER,ROW,COL  LAYER,ROW,COL  LAYER,ROW,COL  LAYER,ROW,COL
 ---------------------------------------------------------------------------
  1  0.6850E-03  0  0.1996E-03  0  0.1112E-03  0  0.6384E-04  0  0.4615E-04
   ( 50,  1, 38)  ( 48,  1, 46)  ( 46,  1, 52)  ( 43,  1, 57)  ( 40,  1, 61)
  0  0.2486E-04  0 -0.1529E-04  0 -0.1021E-04  0 -0.5544E-05  0 -0.4127E-05
   ( 50,  1, 57)  (  1,  1, 70)  (  1,  1, 67)  (  1,  1, 43)  (  1,  1, 49)
  0 -0.3331E-05  0 -0.2595E-05  0 -0.1972E-05  0 -0.1353E-05  0 -0.1078E-05
   (  2,  1, 36)  (  1,  1, 40)  (  4,  1,  8)  (  7,  1,  5)  (  1,  1,  6)
  0 -0.1105E-05  0 -0.1182E-05  0 -0.1100E-05  0 -0.8689E-06  1 -0.2008E-06
   (  1,  1, 12)  (  3,  1,  2)  (  1,  1,  5)  ( 49,  1, 10)  ( 45,  1, 12)

 MAXIMUM RESIDUAL FOR EACH ITERATION (1 INDICATES THE FIRST INNER ITERATION):

    RESIDUAL       RESIDUAL       RESIDUAL       RESIDUAL       RESIDUAL    
   LAYER,ROW,COL  LAYER,ROW,COL  LAYER,ROW,COL  LAYER,ROW,COL  LAYER,ROW,COL
 ---------------------------------------------------------------------------
  1   5.104      0   3.176      0  -1.667      0 -0.9385      0 -0.7756    
   ( 50,  1, 40)  ( 50,  1, 33)  ( 49,  1, 33)  ( 50,  1, 52)  ( 50,  1, 31)
  0 -0.4108      0 -0.2977      0  0.1627      0  0.9037E-01  0  0.6236E-01
   ( 49,  1, 41)  ( 49,  1, 38)  ( 50,  1, 31)  ( 49,  1, 42)  ( 49,  1, 37)
  0  0.4273E-01  0 -0.4183E-01  0  0.3288E-01  0  0.2446E-01  0  0.1669E-01
   ( 42,  1,  1)  ( 42,  1,  2)  ( 40,  1,  2)  ( 43,  1,  2)  ( 45,  1,  2)
  0 -0.1561E-01  0  0.1668E-01  0 -0.1552E-01  0  0.1403E-01  1 -0.5806E-02
   ( 43,  1,  2)  (  1,  1, 99)  (  2,  1, 99)  ( 44,  1,  2)  (  1,  1, 99)


 FLOW MODEL IS TRANSIENT
 FLOW MODEL CONTAINS CONSTANT-HEAD CELLS


 MAXIMUM STEPSIZE DURING WHICH ANY PARTICLE CANNOT MOVE MORE THAN ONE CELL
 =  9.859    (WHEN MIN. R.F.=1)  AT K=   1, I=   1, J=  99

 MAXIMUM STEPSIZE WHICH MEETS STABILITY CRITERION OF THE ADVECTION TERM
 (FOR PURE FINITE-DIFFERENCE OPTION, MIXELM=0) 
 =  9.607    (WHEN MIN. R.F.=1)  AT K=   1, I=   1, J=  99


 TOTAL NUMBER OF POINT SOURCES/SINKS PRESENT IN THE FLOW MODEL =       100

 MAXIMUM STEPSIZE WHICH MEETS STABILITY CRITERION OF THE SINK & SOURCE TERM
 =  122.8    (WHEN MIN. R.F.=1)  AT K=   1, I=   1, J=   1

 MAXIMUM STEPSIZE WHICH MEETS STABILITY CRITERION OF THE DISPERSION TERM
 =  2.194    (WHEN MIN. R.F.=1)  AT K=   1, I=   1, J=  99
     5 CALLS TO GCG PACKAGE FOR TRANSPORT TIME STEP  31 IN FLOW TIME STEP   1 STRESS PERIOD   8
    15 TOTAL ITERATIONS
 
 SOLVING FOR HEAD 


     2 CALLS TO PCG ROUTINE FOR TIME STEP   1 IN STRESS PERIOD    8
    20 TOTAL ITERATIONS

 MAXIMUM HEAD CHANGE FOR EACH ITERATION (1 INDICATES THE FIRST INNER ITERATION):

    HEAD CHANGE    HEAD CHANGE    HEAD CHANGE    HEAD CHANGE    HEAD CHANGE 
   LAYER,ROW,COL  LAYER,ROW,COL  LAYER,ROW,COL  LAYER,ROW,COL  LAYER,ROW,COL
 ---------------------------------------------------------------------------
  1  0.6838E-03  0  0.1991E-03  0  0.1110E-03  0  0.6375E-04  0  0.4604E-04
   ( 50,  1, 38)  ( 48,  1, 46)  ( 46,  1, 52)  ( 43,  1, 57)  ( 40,  1, 61)
  0  0.2474E-04  0 -0.1523E-04  0 -0.1020E-04  0 -0.5588E-05  0 -0.4162E-05
   ( 50,  1, 57)  (  1,  1, 69)  (  1,  1, 67)  (  1,  1, 43)  (  1,  1, 49)
  0 -0.3388E-05  0 -0.2668E-05  0 -0.2083E-05  0 -0.1448E-05  0 -0.1180E-05
   (  2,  1, 36)  (  1,  1, 40)  (  4,  1,  8)  (  7,  1,  5)  (  1,  1,  6)
  0 -0.1241E-05  0 -0.1327E-05  0 -0.1194E-05  0 -0.9842E-06  1 -0.2127E-06
   (  1,  1, 11)  (  3,  1,  2)  (  1,  1,  5)  ( 49,  1, 10)  ( 45,  1, 11)

 MAXIMUM RESIDUAL FOR EACH ITERATION (1 INDICATES THE FIRST INNER ITERATION):

    RESIDUAL       RESIDUAL       RESIDUAL       RESIDUAL       RESIDUAL    
   LAYER,ROW,COL  LAYER,ROW,COL  LAYER,ROW,COL  LAYER,ROW,COL  LAYER,ROW,COL
 ---------------------------------------------------------------------------
  1   5.090      0   3.185      0  -1.642      0 -0.9330      0 -0.7747    
   ( 50,  1, 40)  ( 50,  1, 33)  ( 49,  1, 33)  ( 50,  1, 52)  ( 50,  1, 31)
  0 -0.4119      0 -0.2968      0  0.1638      0  0.9070E-01  0  0.6262E-01
   ( 49,  1, 41)  ( 49,  1, 38)  ( 50,  1, 31)  ( 49,  1, 42)  ( 49,  1, 37)
  0  0.4347E-01  0 -0.4256E-01  0  0.3424E-01  0  0.2615E-01  0  0.1829E-01
   ( 42,  1,  1)  ( 42,  1,  2)  ( 40,  1,  2)  ( 43,  1,  2)  ( 45,  1,  2)
  0 -0.1763E-01  0  0.1859E-01  0 -0.1718E-01  0  0.1525E-01  1 -0.6389E-02
   ( 43,  1,  2)  (  1,  1, 99)  (  2,  1, 99)  ( 45,  1,  2)  (  1,  1, 99)


 FLOW MODEL IS TRANSIENT
 FLOW MODEL CONTAINS CONSTANT-HEAD CELLS


 MAXIMUM STEPSIZE DURING WHICH ANY PARTICLE CANNOT MOVE MORE THAN ONE CELL
 =  9.861    (WHEN MIN. R.F.=1)  AT K=   1, I=   1, J=  99

 MAXIMUM STEPSIZE WHICH MEETS STABILITY CRITERION OF THE ADVECTION TERM
 (FOR PURE FINITE-DIFFERENCE OPTION, MIXELM=0) 
 =  9.609    (WHEN MIN. R.F.=1)  AT K=   1, I=   1, J=  99


 TOTAL NUMBER OF POINT SOURCES/SINKS PRESENT IN THE FLOW MODEL =       100

 MAXIMUM STEPSIZE WHICH MEETS STABILITY CRITERION OF THE SINK & SOURCE TERM
 =  122.8    (WHEN MIN. R.F.=1)  AT K=   1, I=   1, J=   1

 MAXIMUM STEPSIZE WHICH MEETS STABILITY CRITERION OF THE DISPERSION TERM
 =  2.195    (WHEN MIN. R.F.=1)  AT K=   1, I=   1, J=  99
     5 CALLS TO GCG PACKAGE FOR TRANSPORT TIME STEP  32 IN FLOW TIME STEP   1 STRESS PERIOD   8
    15 TOTAL ITERATIONS
 
 SOLVING FOR HEAD 


     2 CALLS TO PCG ROUTINE FOR TIME STEP   1 IN STRESS PERIOD    8
    20 TOTAL ITERATIONS

 MAXIMUM HEAD CHANGE FOR EACH ITERATION (1 INDICATES THE FIRST INNER ITERATION):

    HEAD CHANGE    HEAD CHANGE    HEAD CHANGE    HEAD CHANGE    HEAD CHANGE 
   LAYER,ROW,COL  LAYER,ROW,COL  LAYER,ROW,COL  LAYER,ROW,COL  LAYER,ROW,COL
 ---------------------------------------------------------------------------
  1  0.6824E-03  0  0.1985E-03  0  0.1106E-03  0  0.6355E-04  0  0.4594E-04
   ( 50,  1, 38)  ( 48,  1, 46)  ( 46,  1, 52)  ( 43,  1, 57)  ( 40,  1, 61)
  0  0.2468E-04  0 -0.1517E-04  0 -0.1018E-04  0 -0.5552E-05  0 -0.4123E-05
   ( 50,  1, 57)  (  1,  1, 69)  (  1,  1, 67)  (  1,  1, 43)  (  1,  1, 49)
  0 -0.3343E-05  0 -0.2626E-05  0 -0.2036E-05  0 -0.1403E-05  0 -0.1130E-05
   (  2,  1, 36)  (  1,  1, 40)  (  4,  1,  8)  (  7,  1,  5)  (  1,  1,  6)
  0 -0.1179E-05  0 -0.1264E-05  0 -0.1156E-05  0 -0.9373E-06  1 -0.2075E-06
   (  1,  1, 11)  (  3,  1,  2)  (  1,  1,  5)  ( 49,  1, 10)  ( 45,  1, 11)

 MAXIMUM RESIDUAL FOR EACH ITERATION (1 INDICATES THE FIRST INNER ITERATION):

    RESIDUAL       RESIDUAL       RESIDUAL       RESIDUAL       RESIDUAL    
   LAYER,ROW,COL  LAYER,ROW,COL  LAYER,ROW,COL  LAYER,ROW,COL  LAYER,ROW,COL
 ---------------------------------------------------------------------------
  1   5.075      0   3.188      0  -1.616      0 -0.9326      0 -0.7723    
   ( 50,  1, 40)  ( 50,  1, 33)  ( 49,  1, 33)  ( 50,  1, 52)  ( 50,  1, 31)
  0 -0.4124      0 -0.2952      0  0.1643      0  0.9046E-01  0  0.6225E-01
   ( 49,  1, 41)  ( 49,  1, 38)  ( 50,  1, 31)  ( 49,  1, 42)  ( 49,  1, 37)
  0  0.4326E-01  0 -0.4214E-01  0  0.3382E-01  0  0.2560E-01  0  0.1760E-01
   ( 42,  1,  1)  ( 42,  1,  2)  ( 40,  1,  2)  ( 43,  1,  2)  ( 45,  1,  2)
  0 -0.1686E-01  0  0.1787E-01  0 -0.1654E-01  0  0.1482E-01  1 -0.6103E-02
   ( 43,  1,  2)  (  1,  1, 99)  (  2,  1, 99)  ( 45,  1,  2)  (  1,  1, 99)


 FLOW MODEL IS TRANSIENT
 FLOW MODEL CONTAINS CONSTANT-HEAD CELLS


 MAXIMUM STEPSIZE DURING WHICH ANY PARTICLE CANNOT MOVE MORE THAN ONE CELL
 =  9.864    (WHEN MIN. R.F.=1)  AT K=   1, I=   1, J=  99

 MAXIMUM STEPSIZE WHICH MEETS STABILITY CRITERION OF THE ADVECTION TERM
 (FOR PURE FINITE-DIFFERENCE OPTION, MIXELM=0) 
 =  9.612    (WHEN MIN. R.F.=1)  AT K=   1, I=   1, J=  99


 TOTAL NUMBER OF POINT SOURCES/SINKS PRESENT IN THE FLOW MODEL =       100

 MAXIMUM STEPSIZE WHICH MEETS STABILITY CRITERION OF THE SINK & SOURCE TERM
 =  122.8    (WHEN MIN. R.F.=1)  AT K=   1, I=   1, J=   1

 MAXIMUM STEPSIZE WHICH MEETS STABILITY CRITERION OF THE DISPERSION TERM
 =  2.195    (WHEN MIN. R.F.=1)  AT K=   1, I=   1, J=  99
     5 CALLS TO GCG PACKAGE FOR TRANSPORT TIME STEP  33 IN FLOW TIME STEP   1 STRESS PERIOD   8
    15 TOTAL ITERATIONS
 
 SOLVING FOR HEAD 


     2 CALLS TO PCG ROUTINE FOR TIME STEP   1 IN STRESS PERIOD    8
    20 TOTAL ITERATIONS

 MAXIMUM HEAD CHANGE FOR EACH ITERATION (1 INDICATES THE FIRST INNER ITERATION):

    HEAD CHANGE    HEAD CHANGE    HEAD CHANGE    HEAD CHANGE    HEAD CHANGE 
   LAYER,ROW,COL  LAYER,ROW,COL  LAYER,ROW,COL  LAYER,ROW,COL  LAYER,ROW,COL
 ---------------------------------------------------------------------------
  1  0.6809E-03  0  0.1978E-03  0  0.1104E-03  0  0.6339E-04  0  0.4586E-04
   ( 50,  1, 38)  ( 48,  1, 46)  ( 46,  1, 52)  ( 43,  1, 57)  ( 40,  1, 61)
  0  0.2459E-04  0 -0.1519E-04  0 -0.1020E-04  0 -0.5554E-05  0 -0.4127E-05
   ( 50,  1, 57)  (  1,  1, 69)  (  1,  1, 66)  (  1,  1, 43)  (  1,  1, 48)
  0 -0.3333E-05  0 -0.2633E-05  0 -0.2048E-05  0 -0.1412E-05  0 -0.1137E-05
   (  2,  1, 36)  (  1,  1, 39)  (  4,  1,  8)  (  7,  1,  5)  (  1,  1,  6)
  0 -0.1189E-05  0 -0.1277E-05  0 -0.1166E-05  0 -0.9488E-06  1 -0.2078E-06
   (  1,  1, 11)  (  3,  1,  2)  (  1,  1,  5)  ( 49,  1, 10)  ( 45,  1, 11)

 MAXIMUM RESIDUAL FOR EACH ITERATION (1 INDICATES THE FIRST INNER ITERATION):

    RESIDUAL       RESIDUAL       RESIDUAL       RESIDUAL       RESIDUAL    
   LAYER,ROW,COL  LAYER,ROW,COL  LAYER,ROW,COL  LAYER,ROW,COL  LAYER,ROW,COL
 ---------------------------------------------------------------------------
  1   5.058      0   3.188      0  -1.593      0 -0.9313      0 -0.7690    
   ( 50,  1, 40)  ( 50,  1, 33)  ( 49,  1, 32)  ( 50,  1, 52)  ( 50,  1, 31)
  0 -0.4121      0 -0.2956      0  0.1644      0  0.9031E-01  0  0.6227E-01
   ( 49,  1, 41)  ( 49,  1, 37)  ( 50,  1, 31)  ( 49,  1, 42)  ( 49,  1, 37)
  0  0.4346E-01  0 -0.4218E-01  0  0.3407E-01  0  0.2579E-01  0  0.1777E-01
   ( 42,  1,  1)  ( 42,  1,  2)  ( 40,  1,  2)  ( 43,  1,  2)  ( 45,  1,  2)
  0 -0.1716E-01  0  0.1811E-01  0 -0.1671E-01  0  0.1502E-01  1 -0.6111E-02
   ( 43,  1,  2)  (  1,  1, 99)  (  2,  1, 99)  ( 45,  1,  2)  (  1,  1, 99)


 FLOW MODEL IS TRANSIENT
 FLOW MODEL CONTAINS CONSTANT-HEAD CELLS


 MAXIMUM STEPSIZE DURING WHICH ANY PARTICLE CANNOT MOVE MORE THAN ONE CELL
 =  9.866    (WHEN MIN. R.F.=1)  AT K=   1, I=   1, J=  99

 MAXIMUM STEPSIZE WHICH MEETS STABILITY CRITERION OF THE ADVECTION TERM
 (FOR PURE FINITE-DIFFERENCE OPTION, MIXELM=0) 
 =  9.614    (WHEN MIN. R.F.=1)  AT K=   1, I=   1, J=  99


 TOTAL NUMBER OF POINT SOURCES/SINKS PRESENT IN THE FLOW MODEL =       100

 MAXIMUM STEPSIZE WHICH MEETS STABILITY CRITERION OF THE SINK & SOURCE TERM
 =  122.8    (WHEN MIN. R.F.=1)  AT K=   1, I=   1, J=   1

 MAXIMUM STEPSIZE WHICH MEETS STABILITY CRITERION OF THE DISPERSION TERM
 =  2.196    (WHEN MIN. R.F.=1)  AT K=   1, I=   1, J=  99
     5 CALLS TO GCG PACKAGE FOR TRANSPORT TIME STEP  34 IN FLOW TIME STEP   1 STRESS PERIOD   8
    15 TOTAL ITERATIONS
 
 SOLVING FOR HEAD 


     2 CALLS TO PCG ROUTINE FOR TIME STEP   1 IN STRESS PERIOD    8
    16 TOTAL ITERATIONS

 MAXIMUM HEAD CHANGE FOR EACH ITERATION (1 INDICATES THE FIRST INNER ITERATION):

    HEAD CHANGE    HEAD CHANGE    HEAD CHANGE    HEAD CHANGE    HEAD CHANGE 
   LAYER,ROW,COL  LAYER,ROW,COL  LAYER,ROW,COL  LAYER,ROW,COL  LAYER,ROW,COL
 ---------------------------------------------------------------------------
  1  0.6792E-03  0  0.1972E-03  0  0.1101E-03  0  0.6323E-04  0  0.4577E-04
   ( 50,  1, 38)  ( 48,  1, 46)  ( 46,  1, 52)  ( 43,  1, 57)  ( 40,  1, 61)
  0  0.2453E-04  0 -0.1510E-04  0 -0.1016E-04  0 -0.5484E-05  0 -0.4052E-05
   ( 50,  1, 57)  (  1,  1, 69)  (  1,  1, 66)  (  1,  1, 43)  (  1,  1, 48)
  0 -0.3222E-05  0 -0.2519E-05  0 -0.1913E-05  0 -0.1283E-05  0 -0.9944E-06
   (  2,  1, 36)  (  1,  1, 39)  (  4,  1,  7)  (  7,  1,  5)  (  1,  1,  6)
  1 -0.2504E-06
   (  1,  1, 12)

 MAXIMUM RESIDUAL FOR EACH ITERATION (1 INDICATES THE FIRST INNER ITERATION):

    RESIDUAL       RESIDUAL       RESIDUAL       RESIDUAL       RESIDUAL    
   LAYER,ROW,COL  LAYER,ROW,COL  LAYER,ROW,COL  LAYER,ROW,COL  LAYER,ROW,COL
 ---------------------------------------------------------------------------
  1   5.037      0   3.181      0  -1.612      0 -0.9283      0 -0.7643    
   ( 50,  1, 40)  ( 50,  1, 33)  ( 49,  1, 32)  ( 50,  1, 52)  ( 50,  1, 30)
  0 -0.4120      0 -0.2956      0  0.1638      0  0.8956E-01  0  0.6146E-01
   ( 49,  1, 41)  ( 49,  1, 37)  ( 50,  1, 31)  ( 49,  1, 41)  ( 49,  1, 37)
  0  0.4268E-01  0 -0.4113E-01  0  0.3252E-01  0  0.2388E-01  0  0.1568E-01
   ( 42,  1,  1)  ( 42,  1,  2)  ( 40,  1,  2)  ( 43,  1,  2)  ( 45,  1,  2)
  1  0.4665E-02
   ( 33,  1,  3)


 FLOW MODEL IS TRANSIENT
 FLOW MODEL CONTAINS CONSTANT-HEAD CELLS


 MAXIMUM STEPSIZE DURING WHICH ANY PARTICLE CANNOT MOVE MORE THAN ONE CELL
 =  9.869    (WHEN MIN. R.F.=1)  AT K=   1, I=   1, J=  99

 MAXIMUM STEPSIZE WHICH MEETS STABILITY CRITERION OF THE ADVECTION TERM
 (FOR PURE FINITE-DIFFERENCE OPTION, MIXELM=0) 
 =  9.617    (WHEN MIN. R.F.=1)  AT K=   1, I=   1, J=  99


 TOTAL NUMBER OF POINT SOURCES/SINKS PRESENT IN THE FLOW MODEL =       100

 MAXIMUM STEPSIZE WHICH MEETS STABILITY CRITERION OF THE SINK & SOURCE TERM
 =  122.8    (WHEN MIN. R.F.=1)  AT K=   1, I=   1, J=   1

 MAXIMUM STEPSIZE WHICH MEETS STABILITY CRITERION OF THE DISPERSION TERM
 =  2.197    (WHEN MIN. R.F.=1)  AT K=   1, I=   1, J=  99
     5 CALLS TO GCG PACKAGE FOR TRANSPORT TIME STEP  35 IN FLOW TIME STEP   1 STRESS PERIOD   8
    15 TOTAL ITERATIONS
 
 SOLVING FOR HEAD 


     2 CALLS TO PCG ROUTINE FOR TIME STEP   1 IN STRESS PERIOD    8
    16 TOTAL ITERATIONS

 MAXIMUM HEAD CHANGE FOR EACH ITERATION (1 INDICATES THE FIRST INNER ITERATION):

    HEAD CHANGE    HEAD CHANGE    HEAD CHANGE    HEAD CHANGE    HEAD CHANGE 
   LAYER,ROW,COL  LAYER,ROW,COL  LAYER,ROW,COL  LAYER,ROW,COL  LAYER,ROW,COL
 ---------------------------------------------------------------------------
  1  0.6774E-03  0  0.1964E-03  0  0.1098E-03  0  0.6305E-04  0  0.4569E-04
   ( 50,  1, 38)  ( 48,  1, 46)  ( 46,  1, 52)  ( 43,  1, 57)  ( 40,  1, 60)
  0  0.2453E-04  0 -0.1504E-04  0 -0.1006E-04  0 -0.5389E-05  0 -0.4020E-05
   ( 50,  1, 57)  (  1,  1, 69)  (  1,  1, 66)  (  1,  1, 43)  (  1,  1, 48)
  0 -0.3181E-05  0 -0.2496E-05  0 -0.1837E-05  0 -0.1202E-05  0 -0.9215E-06
   (  2,  1, 35)  (  1,  1, 39)  (  4,  1,  7)  (  7,  1,  5)  (  1,  1,  6)
  1 -0.2391E-06
   (  1,  1, 12)

 MAXIMUM RESIDUAL FOR EACH ITERATION (1 INDICATES THE FIRST INNER ITERATION):

    RESIDUAL       RESIDUAL       RESIDUAL       RESIDUAL       RESIDUAL    
   LAYER,ROW,COL  LAYER,ROW,COL  LAYER,ROW,COL  LAYER,ROW,COL  LAYER,ROW,COL
 ---------------------------------------------------------------------------
  1   5.031      0   3.176      0  -1.634      0 -0.9259      0 -0.7656    
   ( 50,  1, 39)  ( 50,  1, 33)  ( 49,  1, 32)  ( 50,  1, 52)  ( 50,  1, 30)
  0 -0.4110      0 -0.2955      0  0.1644      0  0.8958E-01  0  0.6144E-01
   ( 49,  1, 41)  ( 49,  1, 37)  ( 50,  1, 31)  ( 49,  1, 41)  ( 49,  1, 37)
  0  0.4198E-01  0 -0.4108E-01  0  0.3225E-01  0  0.2296E-01  0  0.1462E-01
   ( 42,  1,  1)  ( 42,  1,  2)  ( 40,  1,  2)  ( 43,  1,  2)  ( 45,  1,  2)
  1  0.4464E-02
   ( 33,  1,  3)


 FLOW MODEL IS TRANSIENT
 FLOW MODEL CONTAINS CONSTANT-HEAD CELLS


 MAXIMUM STEPSIZE DURING WHICH ANY PARTICLE CANNOT MOVE MORE THAN ONE CELL
 =  9.871    (WHEN MIN. R.F.=1)  AT K=   1, I=   1, J=  99

 MAXIMUM STEPSIZE WHICH MEETS STABILITY CRITERION OF THE ADVECTION TERM
 (FOR PURE FINITE-DIFFERENCE OPTION, MIXELM=0) 
 =  9.619    (WHEN MIN. R.F.=1)  AT K=   1, I=   1, J=  99


 TOTAL NUMBER OF POINT SOURCES/SINKS PRESENT IN THE FLOW MODEL =       100

 MAXIMUM STEPSIZE WHICH MEETS STABILITY CRITERION OF THE SINK & SOURCE TERM
 =  122.8    (WHEN MIN. R.F.=1)  AT K=   1, I=   1, J=   1

 MAXIMUM STEPSIZE WHICH MEETS STABILITY CRITERION OF THE DISPERSION TERM
 =  2.197    (WHEN MIN. R.F.=1)  AT K=   1, I=   1, J=  99
     5 CALLS TO GCG PACKAGE FOR TRANSPORT TIME STEP  36 IN FLOW TIME STEP   1 STRESS PERIOD   8
    15 TOTAL ITERATIONS
 
 SOLVING FOR HEAD 


     2 CALLS TO PCG ROUTINE FOR TIME STEP   1 IN STRESS PERIOD    8
    20 TOTAL ITERATIONS

 MAXIMUM HEAD CHANGE FOR EACH ITERATION (1 INDICATES THE FIRST INNER ITERATION):

    HEAD CHANGE    HEAD CHANGE    HEAD CHANGE    HEAD CHANGE    HEAD CHANGE 
   LAYER,ROW,COL  LAYER,ROW,COL  LAYER,ROW,COL  LAYER,ROW,COL  LAYER,ROW,COL
 ---------------------------------------------------------------------------
  1  0.6754E-03  0  0.1958E-03  0  0.1094E-03  0  0.6291E-04  0  0.4559E-04
   ( 50,  1, 38)  ( 48,  1, 46)  ( 46,  1, 52)  ( 43,  1, 56)  ( 40,  1, 60)
  0  0.2443E-04  0 -0.1504E-04  0 -0.1007E-04  0 -0.5430E-05  0 -0.4076E-05
   ( 50,  1, 57)  (  1,  1, 69)  (  1,  1, 66)  (  1,  1, 43)  (  1,  1, 48)
  0 -0.3278E-05  0 -0.2609E-05  0 -0.2008E-05  0 -0.1340E-05  0 -0.1069E-05
   (  2,  1, 35)  (  1,  1, 39)  (  4,  1,  7)  (  7,  1,  5)  (  1,  1,  6)
  0 -0.1101E-05  0 -0.1189E-05  0 -0.1099E-05  0 -0.8773E-06  1 -0.1994E-06
   (  1,  1, 11)  (  2,  1,  2)  (  1,  1,  5)  ( 49,  1, 10)  ( 45,  1, 11)

 MAXIMUM RESIDUAL FOR EACH ITERATION (1 INDICATES THE FIRST INNER ITERATION):

    RESIDUAL       RESIDUAL       RESIDUAL       RESIDUAL       RESIDUAL    
   LAYER,ROW,COL  LAYER,ROW,COL  LAYER,ROW,COL  LAYER,ROW,COL  LAYER,ROW,COL
 ---------------------------------------------------------------------------
  1   5.024      0   3.155      0  -1.648      0 -0.9248      0 -0.7660    
   ( 50,  1, 39)  ( 50,  1, 33)  ( 49,  1, 32)  ( 50,  1, 52)  ( 50,  1, 30)
  0 -0.4096      0 -0.2961      0  0.1628      0  0.8987E-01  0  0.6175E-01
   ( 49,  1, 41)  ( 49,  1, 37)  ( 50,  1, 31)  ( 49,  1, 41)  ( 49,  1, 37)
  0  0.4322E-01  0 -0.4241E-01  0  0.3411E-01  0  0.2512E-01  0  0.1680E-01
   ( 42,  1,  1)  ( 43,  1,  2)  ( 40,  1,  2)  ( 43,  1,  2)  ( 45,  1,  2)
  0 -0.1617E-01  0  0.1708E-01  0 -0.1561E-01  0  0.1427E-01  1 -0.5553E-02
   ( 43,  1,  2)  (  1,  1, 99)  (  2,  1, 99)  ( 45,  1,  2)  (  1,  1, 99)


 FLOW MODEL IS TRANSIENT
 FLOW MODEL CONTAINS CONSTANT-HEAD CELLS


 MAXIMUM STEPSIZE DURING WHICH ANY PARTICLE CANNOT MOVE MORE THAN ONE CELL
 =  9.874    (WHEN MIN. R.F.=1)  AT K=   1, I=   1, J=  99

 MAXIMUM STEPSIZE WHICH MEETS STABILITY CRITERION OF THE ADVECTION TERM
 (FOR PURE FINITE-DIFFERENCE OPTION, MIXELM=0) 
 =  9.621    (WHEN MIN. R.F.=1)  AT K=   1, I=   1, J=  99


 TOTAL NUMBER OF POINT SOURCES/SINKS PRESENT IN THE FLOW MODEL =       100

 MAXIMUM STEPSIZE WHICH MEETS STABILITY CRITERION OF THE SINK & SOURCE TERM
 =  122.8    (WHEN MIN. R.F.=1)  AT K=   1, I=   1, J=   1

 MAXIMUM STEPSIZE WHICH MEETS STABILITY CRITERION OF THE DISPERSION TERM
 =  2.198    (WHEN MIN. R.F.=1)  AT K=   1, I=   1, J=  99
     5 CALLS TO GCG PACKAGE FOR TRANSPORT TIME STEP  37 IN FLOW TIME STEP   1 STRESS PERIOD   8
    15 TOTAL ITERATIONS
 
 SOLVING FOR HEAD 


     2 CALLS TO PCG ROUTINE FOR TIME STEP   1 IN STRESS PERIOD    8
    20 TOTAL ITERATIONS

 MAXIMUM HEAD CHANGE FOR EACH ITERATION (1 INDICATES THE FIRST INNER ITERATION):

    HEAD CHANGE    HEAD CHANGE    HEAD CHANGE    HEAD CHANGE    HEAD CHANGE 
   LAYER,ROW,COL  LAYER,ROW,COL  LAYER,ROW,COL  LAYER,ROW,COL  LAYER,ROW,COL
 ---------------------------------------------------------------------------
  1  0.6734E-03  0  0.1951E-03  0  0.1091E-03  0  0.6281E-04  0  0.4555E-04
   ( 50,  1, 38)  ( 48,  1, 46)  ( 46,  1, 51)  ( 43,  1, 56)  ( 40,  1, 60)
  0  0.2427E-04  0 -0.1499E-04  0 -0.1023E-04  0 -0.5490E-05  0 -0.4074E-05
   ( 50,  1, 56)  (  1,  1, 70)  (  1,  1, 66)  (  1,  1, 43)  (  1,  1, 48)
  0 -0.3252E-05  0 -0.2593E-05  0 -0.2050E-05  0 -0.1378E-05  0 -0.1095E-05
   (  2,  1, 35)  (  1,  1, 39)  (  4,  1,  7)  (  7,  1,  5)  (  1,  1,  6)
  0 -0.1129E-05  0 -0.1221E-05  0 -0.1128E-05  0 -0.9092E-06  1 -0.2000E-06
   (  1,  1, 11)  (  2,  1,  2)  (  1,  1,  5)  ( 49,  1, 10)  ( 45,  1, 11)

 MAXIMUM RESIDUAL FOR EACH ITERATION (1 INDICATES THE FIRST INNER ITERATION):

    RESIDUAL       RESIDUAL       RESIDUAL       RESIDUAL       RESIDUAL    
   LAYER,ROW,COL  LAYER,ROW,COL  LAYER,ROW,COL  LAYER,ROW,COL  LAYER,ROW,COL
 ---------------------------------------------------------------------------
  1   5.016      0   3.132      0  -1.657      0 -0.9216      0 -0.7673    
   ( 50,  1, 39)  ( 50,  1, 33)  ( 49,  1, 32)  ( 50,  1, 52)  ( 50,  1, 30)
  0 -0.4097      0 -0.2964      0  0.1604      0  0.8971E-01  0  0.6104E-01
   ( 49,  1, 41)  ( 49,  1, 37)  ( 50,  1, 31)  ( 49,  1, 41)  ( 49,  1, 37)
  0  0.4379E-01  0 -0.4258E-01  0  0.3398E-01  0  0.2557E-01  0  0.1731E-01
   ( 42,  1,  1)  ( 43,  1,  2)  ( 40,  1,  2)  ( 43,  1,  2)  ( 45,  1,  2)
  0 -0.1677E-01  0  0.1763E-01  0 -0.1614E-01  0  0.1476E-01  1 -0.5692E-02
   ( 43,  1,  2)  (  1,  1, 99)  (  2,  1, 99)  ( 45,  1,  2)  (  1,  1, 99)


 FLOW MODEL IS TRANSIENT
 FLOW MODEL CONTAINS CONSTANT-HEAD CELLS


 MAXIMUM STEPSIZE DURING WHICH ANY PARTICLE CANNOT MOVE MORE THAN ONE CELL
 =  9.876    (WHEN MIN. R.F.=1)  AT K=   1, I=   1, J=  99

 MAXIMUM STEPSIZE WHICH MEETS STABILITY CRITERION OF THE ADVECTION TERM
 (FOR PURE FINITE-DIFFERENCE OPTION, MIXELM=0) 
 =  9.624    (WHEN MIN. R.F.=1)  AT K=   1, I=   1, J=  99


 TOTAL NUMBER OF POINT SOURCES/SINKS PRESENT IN THE FLOW MODEL =       100

 MAXIMUM STEPSIZE WHICH MEETS STABILITY CRITERION OF THE SINK & SOURCE TERM
 =  122.8    (WHEN MIN. R.F.=1)  AT K=   1, I=   1, J=   1

 MAXIMUM STEPSIZE WHICH MEETS STABILITY CRITERION OF THE DISPERSION TERM
 =  2.198    (WHEN MIN. R.F.=1)  AT K=   1, I=   1, J=  99
     5 CALLS TO GCG PACKAGE FOR TRANSPORT TIME STEP  38 IN FLOW TIME STEP   1 STRESS PERIOD   8
    15 TOTAL ITERATIONS
 
 SOLVING FOR HEAD 


     2 CALLS TO PCG ROUTINE FOR TIME STEP   1 IN STRESS PERIOD    8
    12 TOTAL ITERATIONS

 MAXIMUM HEAD CHANGE FOR EACH ITERATION (1 INDICATES THE FIRST INNER ITERATION):

    HEAD CHANGE    HEAD CHANGE    HEAD CHANGE    HEAD CHANGE    HEAD CHANGE 
   LAYER,ROW,COL  LAYER,ROW,COL  LAYER,ROW,COL  LAYER,ROW,COL  LAYER,ROW,COL
 ---------------------------------------------------------------------------
  1  0.6208E-03  0  0.1600E-03  0  0.7257E-04  0  0.3630E-04  0  0.2220E-04
   ( 50,  1, 38)  ( 48,  1, 45)  ( 46,  1, 51)  ( 43,  1, 56)  ( 40,  1, 60)
  0  0.1027E-04  0  0.5672E-05  0 -0.3470E-05  0 -0.1660E-05  0 -0.1176E-05
   ( 33,  1, 59)  ( 30,  1, 64)  (  1,  1, 66)  (  1,  1, 71)  (  1,  1, 47)
  0 -0.8240E-06  1 -0.3007E-06
   (  2,  1, 34)  (  3,  1, 13)

 MAXIMUM RESIDUAL FOR EACH ITERATION (1 INDICATES THE FIRST INNER ITERATION):

    RESIDUAL       RESIDUAL       RESIDUAL       RESIDUAL       RESIDUAL    
   LAYER,ROW,COL  LAYER,ROW,COL  LAYER,ROW,COL  LAYER,ROW,COL  LAYER,ROW,COL
 ---------------------------------------------------------------------------
  1   4.680      0   2.619      0  -1.177      0 -0.5764      0 -0.4091    
   ( 50,  1, 39)  ( 50,  1, 32)  ( 49,  1, 32)  ( 50,  1, 51)  ( 50,  1, 30)
  0 -0.2024      0 -0.1270      0  0.5642E-01  0  0.3344E-01  0  0.1944E-01
   ( 49,  1, 40)  ( 49,  1, 37)  ( 50,  1, 31)  ( 49,  1, 41)  ( 49,  1, 36)
  0  0.1216E-01  1  0.5171E-02
   ( 42,  1,  1)  (  2,  1,  5)


 FLOW MODEL IS TRANSIENT
 FLOW MODEL CONTAINS CONSTANT-HEAD CELLS


 MAXIMUM STEPSIZE DURING WHICH ANY PARTICLE CANNOT MOVE MORE THAN ONE CELL
 =  9.878    (WHEN MIN. R.F.=1)  AT K=   1, I=   1, J=  99

 MAXIMUM STEPSIZE WHICH MEETS STABILITY CRITERION OF THE ADVECTION TERM
 (FOR PURE FINITE-DIFFERENCE OPTION, MIXELM=0) 
 =  9.625    (WHEN MIN. R.F.=1)  AT K=   1, I=   1, J=  99


 TOTAL NUMBER OF POINT SOURCES/SINKS PRESENT IN THE FLOW MODEL =       100

 MAXIMUM STEPSIZE WHICH MEETS STABILITY CRITERION OF THE SINK & SOURCE TERM
 =  122.8    (WHEN MIN. R.F.=1)  AT K=   1, I=   1, J=   1

 MAXIMUM STEPSIZE WHICH MEETS STABILITY CRITERION OF THE DISPERSION TERM
 =  2.199    (WHEN MIN. R.F.=1)  AT K=   1, I=   1, J=  99
     3 CALLS TO GCG PACKAGE FOR TRANSPORT TIME STEP  39 IN FLOW TIME STEP   1 STRESS PERIOD   8
     7 TOTAL ITERATIONS
  MAXIMUM CONCENTRATION CHANGES FOR EACH ITERATION:
  MAX. CHANGE LAYER,ROW,COL MAX. CHANGE LAYER,ROW,COL MAX. CHANGE LAYER,ROW,COL MAX. CHANGE LAYER,ROW,COL MAX. CHANGE LAYER,ROW,COL
 ------------------------------------------------------------------------------------------------------------------------------------
   0.4983E-01 (  1,  1, 99)  0.9251E-04 (  1,  1, 99)  0.5066E-06 (  2,  1, 98)  0.2672E-03 (  1,  1, 98)  0.1818E-05 (  1,  1, 98)
   0.7451E-08 (  7,  1, 95)   0.000     (  1,  1,  1)



 >>>>>>>>>>>>>>>>>>>>>>>>>>>>>>>>>>>>>>>>>>>>>>>>>>>>>>>FOR COMPONENT NO. 01<<<<<<<<<<<<<<<<<<<<<<<<<<<<<<<<<<<<<<<<<<<<<<<<<<<<<<<


                                            -------------------------------------------
                                                      TRANSPORT STEP NO.   39
                                            -------------------------------------------

 TOTAL ELAPSED TIME SINCE BEGINNING OF SIMULATION =   2922.000       D
 .....................................................................

                     CUMMULATIVE MASS BUDGETS AT END OF TRANSPORT STEP   39, TIME STEP    1, STRESS PERIOD    8
                     ------------------------------------------------------------------------------------------

                                                             IN                           OUT
                                                      ----------------             ----------------
                               CONSTANT CONCENTRATION:    3427614.                   -1992013.    
                                        CONSTANT HEAD:    0.000000                    0.000000    
                                                WELLS:    0.000000                    0.000000    
                               MASS STOR (FLOW MODEL):    137.6940                   -2576.095    
                                MASS STORAGE (SOLUTE):    1307.767                   -1434472.    
                            ---------------------------------------------------------------------------
                                              [TOTAL]:    3429060.        K          -3429062.        K

                                                          NET (IN - OUT):   -1.750000    
                                                   DISCREPANCY (PERCENT):  -0.5103439E-04

 HEAD WILL BE SAVED ON UNIT   99 AT END OF TIME STEP   1, STRESS PERIOD    8
1
  MASS BUDGET FOR ENTIRE MODEL AT END OF TIME STEP  1 IN STRESS PERIOD   8
  ------------------------------------------------------------------------------

     CUMULATIVE MASS      M       RATES FOR THIS TIME STEP      M/T
     ------------------                 ------------------------

           IN:                                      IN:
           ---                                      ---
             STORAGE =       96008.2188               STORAGE =          74.7604
       CONSTANT HEAD =    44441528.0000         CONSTANT HEAD =        8569.8320
               WELLS =    41656040.0000                 WELLS =       14256.0000
                DCDT =        2253.1218                  DCDT =       3.5525E-03

            TOTAL IN =    86195832.0000              TOTAL IN =       22900.5957

          OUT:                                     OUT:
          ----                                     ----
             STORAGE =     3988239.0000               STORAGE =          75.7988
       CONSTANT HEAD =    81056224.0000         CONSTANT HEAD =       22663.1387
               WELLS =           0.0000                 WELLS =           0.0000
                DCDT =     1152930.7500                  DCDT =         162.4703

           TOTAL OUT =    86197392.0000             TOTAL OUT =       22901.4082

            IN - OUT =       -1560.0000              IN - OUT =          -0.8125

 PERCENT DISCREPANCY =          -0.00     PERCENT DISCREPANCY =          -0.00



0


          TIME SUMMARY AT END OF TRANSPORT STEP   39 IN TIME STEP    1 IN STRESS PERIOD   8
                    SECONDS     MINUTES      HOURS       DAYS        YEARS
                    -----------------------------------------------------------
  TRANS STEP LENGTH 1.92902E+05  3215.0      53.584      2.2327     6.11271E-03
   TIME STEP LENGTH 3.16224E+07 5.27040E+05  8784.0      366.00      1.0021    
 STRESS PERIOD TIME 3.16224E+07 5.27040E+05  8784.0      366.00      1.0021    
         TOTAL TIME 2.52461E+08 4.20768E+06  70128.      2922.0      8.0000    
1


                                   ++++++++++++++++++++++++++++++++++++++++++++++++++++++++++++++
                                                       STRESS PERIOD NO.  009
                                   ++++++++++++++++++++++++++++++++++++++++++++++++++++++++++++++


 LENGTH OF CURRENT STRESS PERIOD =   365.0000    
 NUMBER OF TIME STEPS FOR CURRENT STRESS PERIOD =    1
 TIME STEP MULTIPLIER USED IN FLOW SOLUTION =   1.000000    
 USER-SPECIFIED TRANSPORT STEPSIZE =   0.000000       D
 MAXIMUM NUMBER OF TRANSPORT STEPS ALLOWED  IN ONE FLOW TIME STEP =     50000
 MULTIPLIER FOR SUCCESSIVE TRANSPORT STEPS  [USED IN IMPLICIT SCHEMES] =     1.000
 MAXIMUM TRANSPORT STEP SIZE  [USED IN IMPLICIT SCHEMES] =   0.000000       D
1
                            STRESS PERIOD NO.    9, LENGTH =   365.0000    
                            -----------------------------------------------

                              NUMBER OF TIME STEPS =     1

                               MULTIPLIER FOR DELT =     1.000

                            INITIAL TIME STEP SIZE =   365.0000    

 NO. OF POINT SINKS/SOURCES OF SPECIFIED CONCONCENTRATIONS =    0 IN STRESS PERIOD  9

 WELL NO.  LAYER   ROW   COL   STRESS RATE         NOPRINT         
 ------------------------------------------------------------------

     50 WELLS


                                          ================================================
                                                         FROM TIME =   2922.0     TO    3287.0    

 
 SOLVING FOR HEAD 


     2 CALLS TO PCG ROUTINE FOR TIME STEP   1 IN STRESS PERIOD    9
    15 TOTAL ITERATIONS

 MAXIMUM HEAD CHANGE FOR EACH ITERATION (1 INDICATES THE FIRST INNER ITERATION):

    HEAD CHANGE    HEAD CHANGE    HEAD CHANGE    HEAD CHANGE    HEAD CHANGE 
   LAYER,ROW,COL  LAYER,ROW,COL  LAYER,ROW,COL  LAYER,ROW,COL  LAYER,ROW,COL
 ---------------------------------------------------------------------------
  1  0.2813E-03  0  0.8863E-04  0  0.5624E-04  0  0.3484E-04  0 -0.2636E-04
   (  1,  1, 97)  (  3,  1, 93)  ( 47,  1, 54)  ( 45,  1, 60)  (  3,  1, 78)
  0 -0.1794E-04  0 -0.1088E-04  0  0.5385E-05  0 -0.2563E-05  0 -0.1848E-05
   (  4,  1, 72)  (  5,  1, 65)  ( 25,  1, 68)  (  4,  1, 46)  (  2,  1, 28)
  0 -0.1835E-05  0  0.1607E-05  0  0.1227E-05  0  0.7172E-06  1  0.2758E-06
   (  3,  1, 21)  (  3,  1, 74)  (  3,  1, 77)  (  4,  1, 73)  (  3,  1, 29)

 MAXIMUM RESIDUAL FOR EACH ITERATION (1 INDICATES THE FIRST INNER ITERATION):

    RESIDUAL       RESIDUAL       RESIDUAL       RESIDUAL       RESIDUAL    
   LAYER,ROW,COL  LAYER,ROW,COL  LAYER,ROW,COL  LAYER,ROW,COL  LAYER,ROW,COL
 ---------------------------------------------------------------------------
  1   5.698      0   4.712      0   4.042      0  -2.683      0   1.951    
   (  2,  1, 99)  (  1,  1, 98)  (  1,  1, 99)  (  2,  1, 99)  (  2,  1, 98)
  0  0.8768      0 -0.7340      0 -0.4273      0  0.2033      0 -0.1324    
   (  2,  1, 99)  (  2,  1, 97)  (  2,  1, 98)  (  3,  1, 98)  (  3,  1, 97)
  0  0.9532E-01  0  0.9803E-01  0  0.5234E-01  0 -0.2817E-01  1  0.1061E-01
   (  2,  1, 98)  (  3,  1, 96)  (  3,  1, 97)  (  4,  1, 97)  (  3,  1, 97)


 FLOW MODEL IS TRANSIENT
 FLOW MODEL CONTAINS CONSTANT-HEAD CELLS


 MAXIMUM STEPSIZE DURING WHICH ANY PARTICLE CANNOT MOVE MORE THAN ONE CELL
 =  9.851    (WHEN MIN. R.F.=1)  AT K=   1, I=   1, J=  99

 MAXIMUM STEPSIZE WHICH MEETS STABILITY CRITERION OF THE ADVECTION TERM
 (FOR PURE FINITE-DIFFERENCE OPTION, MIXELM=0) 
 =  9.590    (WHEN MIN. R.F.=1)  AT K=   1, I=   1, J=  99


 TOTAL NUMBER OF POINT SOURCES/SINKS PRESENT IN THE FLOW MODEL =       100

 MAXIMUM STEPSIZE WHICH MEETS STABILITY CRITERION OF THE SINK & SOURCE TERM
 =  122.8    (WHEN MIN. R.F.=1)  AT K=   1, I=   1, J=   1

 MAXIMUM STEPSIZE WHICH MEETS STABILITY CRITERION OF THE DISPERSION TERM
 =  2.190    (WHEN MIN. R.F.=1)  AT K=   1, I=   1, J=  99


     5 CALLS TO GCG PACKAGE FOR TRANSPORT TIME STEP   1 IN FLOW TIME STEP   1 STRESS PERIOD   9
    15 TOTAL ITERATIONS

 OUTPUT CONTROL FOR STRESS PERIOD    9   TIME STEP   1
    SAVE HEAD FOR ALL LAYERS
    SAVE BUDGET FOR ALL LAYERS
    SAVE BUDGET
 
 SOLVING FOR HEAD 


     2 CALLS TO PCG ROUTINE FOR TIME STEP   1 IN STRESS PERIOD    9
    16 TOTAL ITERATIONS

 MAXIMUM HEAD CHANGE FOR EACH ITERATION (1 INDICATES THE FIRST INNER ITERATION):

    HEAD CHANGE    HEAD CHANGE    HEAD CHANGE    HEAD CHANGE    HEAD CHANGE 
   LAYER,ROW,COL  LAYER,ROW,COL  LAYER,ROW,COL  LAYER,ROW,COL  LAYER,ROW,COL
 ---------------------------------------------------------------------------
  1  0.6517E-03  0  0.1877E-03  0  0.1056E-03  0  0.6105E-04  0  0.4414E-04
   ( 50,  1, 37)  ( 48,  1, 45)  ( 46,  1, 51)  ( 43,  1, 56)  ( 40,  1, 60)
  0  0.2312E-04  0 -0.1635E-04  0 -0.1170E-04  0 -0.5401E-05  0 -0.4407E-05
   ( 50,  1, 56)  (  1,  1, 69)  (  2,  1, 64)  (  1,  1, 42)  (  1,  1, 47)
  0 -0.3163E-05  0 -0.2267E-05  0 -0.1878E-05  0 -0.1202E-05  0 -0.9819E-06
   (  2,  1, 36)  (  1,  1, 39)  (  7,  1, 26)  (  7,  1,  5)  (  2,  1,  7)
  1 -0.2680E-06
   (  2,  1, 13)

 MAXIMUM RESIDUAL FOR EACH ITERATION (1 INDICATES THE FIRST INNER ITERATION):

    RESIDUAL       RESIDUAL       RESIDUAL       RESIDUAL       RESIDUAL    
   LAYER,ROW,COL  LAYER,ROW,COL  LAYER,ROW,COL  LAYER,ROW,COL  LAYER,ROW,COL
 ---------------------------------------------------------------------------
  1   4.746      0   2.948      0  -1.956      0  -1.141      0 -0.9664    
   ( 50,  1, 39)  ( 50,  1, 32)  (  1,  1, 99)  (  2,  1, 97)  (  2,  1, 98)
  0  0.4811      0  0.3125      0  0.2165      0 -0.1144      0  0.5732E-01
   (  1,  1, 99)  (  2,  1, 97)  (  2,  1, 98)  (  3,  1, 98)  ( 49,  1, 37)
  0 -0.4072E-01  0 -0.4227E-01  0  0.3082E-01  0  0.2281E-01  0  0.1597E-01
   ( 40,  1,  2)  ( 43,  1,  2)  ( 40,  1,  2)  ( 43,  1,  2)  ( 45,  1,  2)
  1  0.5395E-02
   (  1,  1, 99)


 FLOW MODEL IS TRANSIENT
 FLOW MODEL CONTAINS CONSTANT-HEAD CELLS


 MAXIMUM STEPSIZE DURING WHICH ANY PARTICLE CANNOT MOVE MORE THAN ONE CELL
 =  9.874    (WHEN MIN. R.F.=1)  AT K=   1, I=   1, J=  99

 MAXIMUM STEPSIZE WHICH MEETS STABILITY CRITERION OF THE ADVECTION TERM
 (FOR PURE FINITE-DIFFERENCE OPTION, MIXELM=0) 
 =  9.619    (WHEN MIN. R.F.=1)  AT K=   1, I=   1, J=  99


 TOTAL NUMBER OF POINT SOURCES/SINKS PRESENT IN THE FLOW MODEL =       100

 MAXIMUM STEPSIZE WHICH MEETS STABILITY CRITERION OF THE SINK & SOURCE TERM
 =  122.8    (WHEN MIN. R.F.=1)  AT K=   1, I=   1, J=   1

 MAXIMUM STEPSIZE WHICH MEETS STABILITY CRITERION OF THE DISPERSION TERM
 =  2.197    (WHEN MIN. R.F.=1)  AT K=   1, I=   1, J=  99
     5 CALLS TO GCG PACKAGE FOR TRANSPORT TIME STEP   2 IN FLOW TIME STEP   1 STRESS PERIOD   9
    15 TOTAL ITERATIONS
 
 SOLVING FOR HEAD 


     2 CALLS TO PCG ROUTINE FOR TIME STEP   1 IN STRESS PERIOD    9
    20 TOTAL ITERATIONS

 MAXIMUM HEAD CHANGE FOR EACH ITERATION (1 INDICATES THE FIRST INNER ITERATION):

    HEAD CHANGE    HEAD CHANGE    HEAD CHANGE    HEAD CHANGE    HEAD CHANGE 
   LAYER,ROW,COL  LAYER,ROW,COL  LAYER,ROW,COL  LAYER,ROW,COL  LAYER,ROW,COL
 ---------------------------------------------------------------------------
  1  0.6635E-03  0  0.1911E-03  0  0.1072E-03  0  0.6139E-04  0  0.4454E-04
   ( 50,  1, 37)  ( 48,  1, 45)  ( 46,  1, 51)  ( 43,  1, 56)  ( 40,  1, 60)
  0  0.2382E-04  0 -0.1557E-04  0 -0.1073E-04  0 -0.5296E-05  0 -0.4198E-05
   ( 50,  1, 56)  (  1,  1, 71)  (  1,  1, 66)  (  1,  1, 42)  (  1,  1, 48)
  0 -0.3175E-05  0 -0.2580E-05  0 -0.1927E-05  0 -0.1261E-05  0 -0.1028E-05
   (  2,  1, 35)  (  1,  1, 38)  (  6,  1, 24)  (  8,  1,  6)  (  1,  1,  6)
  0 -0.1056E-05  0 -0.1167E-05  0 -0.1133E-05  0 -0.8815E-06  1 -0.1995E-06
   (  7,  1,  1)  (  5,  1,  3)  (  1,  1,  5)  ( 49,  1, 10)  ( 45,  1, 11)

 MAXIMUM RESIDUAL FOR EACH ITERATION (1 INDICATES THE FIRST INNER ITERATION):

    RESIDUAL       RESIDUAL       RESIDUAL       RESIDUAL       RESIDUAL    
   LAYER,ROW,COL  LAYER,ROW,COL  LAYER,ROW,COL  LAYER,ROW,COL  LAYER,ROW,COL
 ---------------------------------------------------------------------------
  1   4.936      0   3.051      0  -1.644      0 -0.9158      0 -0.7632    
   ( 50,  1, 39)  ( 50,  1, 32)  ( 49,  1, 32)  ( 50,  1, 51)  ( 50,  1, 30)
  0 -0.4027      0 -0.2945      0  0.1597      0  0.8968E-01  0  0.6005E-01
   ( 49,  1, 40)  ( 49,  1, 37)  ( 50,  1, 30)  ( 49,  1, 41)  ( 49,  1, 36)
  0  0.4154E-01  0 -0.4270E-01  0  0.3337E-01  0  0.2466E-01  0  0.1654E-01
   ( 42,  1,  1)  ( 43,  1,  2)  ( 40,  1,  2)  ( 43,  1,  2)  ( 45,  1,  2)
  0 -0.1628E-01  0 -0.1675E-01  0  0.1563E-01  0  0.1476E-01  1 -0.5337E-02
   ( 43,  1,  2)  ( 45,  1,  2)  ( 43,  1,  2)  ( 45,  1,  2)  (  1,  1, 99)


 FLOW MODEL IS TRANSIENT
 FLOW MODEL CONTAINS CONSTANT-HEAD CELLS


 MAXIMUM STEPSIZE DURING WHICH ANY PARTICLE CANNOT MOVE MORE THAN ONE CELL
 =  9.879    (WHEN MIN. R.F.=1)  AT K=   1, I=   1, J=  99

 MAXIMUM STEPSIZE WHICH MEETS STABILITY CRITERION OF THE ADVECTION TERM
 (FOR PURE FINITE-DIFFERENCE OPTION, MIXELM=0) 
 =  9.625    (WHEN MIN. R.F.=1)  AT K=   1, I=   1, J=  99


 TOTAL NUMBER OF POINT SOURCES/SINKS PRESENT IN THE FLOW MODEL =       100

 MAXIMUM STEPSIZE WHICH MEETS STABILITY CRITERION OF THE SINK & SOURCE TERM
 =  122.8    (WHEN MIN. R.F.=1)  AT K=   1, I=   1, J=   1

 MAXIMUM STEPSIZE WHICH MEETS STABILITY CRITERION OF THE DISPERSION TERM
 =  2.198    (WHEN MIN. R.F.=1)  AT K=   1, I=   1, J=  99
     5 CALLS TO GCG PACKAGE FOR TRANSPORT TIME STEP   3 IN FLOW TIME STEP   1 STRESS PERIOD   9
    15 TOTAL ITERATIONS
 
 SOLVING FOR HEAD 


     2 CALLS TO PCG ROUTINE FOR TIME STEP   1 IN STRESS PERIOD    9
    16 TOTAL ITERATIONS

 MAXIMUM HEAD CHANGE FOR EACH ITERATION (1 INDICATES THE FIRST INNER ITERATION):

    HEAD CHANGE    HEAD CHANGE    HEAD CHANGE    HEAD CHANGE    HEAD CHANGE 
   LAYER,ROW,COL  LAYER,ROW,COL  LAYER,ROW,COL  LAYER,ROW,COL  LAYER,ROW,COL
 ---------------------------------------------------------------------------
  1  0.6653E-03  0  0.1918E-03  0  0.1075E-03  0  0.6186E-04  0  0.4495E-04
   ( 50,  1, 37)  ( 48,  1, 45)  ( 46,  1, 51)  ( 43,  1, 56)  ( 40,  1, 60)
  0  0.2399E-04  0 -0.1539E-04  0 -0.1054E-04  0 -0.5300E-05  0 -0.4089E-05
   ( 50,  1, 56)  (  1,  1, 70)  (  1,  1, 65)  (  1,  1, 42)  (  1,  1, 48)
  0 -0.3134E-05  0 -0.2467E-05  0 -0.1935E-05  0 -0.1258E-05  0 -0.9825E-06
   (  2,  1, 35)  (  1,  1, 38)  (  4,  1,  7)  (  8,  1,  6)  (  1,  1,  6)
  1 -0.2380E-06
   (  1,  1, 92)

 MAXIMUM RESIDUAL FOR EACH ITERATION (1 INDICATES THE FIRST INNER ITERATION):

    RESIDUAL       RESIDUAL       RESIDUAL       RESIDUAL       RESIDUAL    
   LAYER,ROW,COL  LAYER,ROW,COL  LAYER,ROW,COL  LAYER,ROW,COL  LAYER,ROW,COL
 ---------------------------------------------------------------------------
  1   4.956      0   3.079      0  -1.636      0 -0.9165      0 -0.7654    
   ( 50,  1, 39)  ( 50,  1, 32)  ( 49,  1, 32)  ( 50,  1, 51)  ( 50,  1, 30)
  0 -0.4058      0 -0.2939      0  0.1594      0  0.8926E-01  0  0.5958E-01
   ( 49,  1, 40)  ( 49,  1, 37)  ( 50,  1, 30)  ( 49,  1, 41)  ( 49,  1, 36)
  0  0.4255E-01  0 -0.4264E-01  0  0.3265E-01  0  0.2406E-01  0  0.1577E-01
   ( 42,  1,  1)  ( 43,  1,  2)  ( 40,  1,  2)  ( 43,  1,  2)  ( 45,  1,  2)
  1  0.4597E-02
   ( 34,  1,  3)


 FLOW MODEL IS TRANSIENT
 FLOW MODEL CONTAINS CONSTANT-HEAD CELLS


 MAXIMUM STEPSIZE DURING WHICH ANY PARTICLE CANNOT MOVE MORE THAN ONE CELL
 =  9.883    (WHEN MIN. R.F.=1)  AT K=   1, I=   1, J=  99

 MAXIMUM STEPSIZE WHICH MEETS STABILITY CRITERION OF THE ADVECTION TERM
 (FOR PURE FINITE-DIFFERENCE OPTION, MIXELM=0) 
 =  9.629    (WHEN MIN. R.F.=1)  AT K=   1, I=   1, J=  99


 TOTAL NUMBER OF POINT SOURCES/SINKS PRESENT IN THE FLOW MODEL =       100

 MAXIMUM STEPSIZE WHICH MEETS STABILITY CRITERION OF THE SINK & SOURCE TERM
 =  122.8    (WHEN MIN. R.F.=1)  AT K=   1, I=   1, J=   1

 MAXIMUM STEPSIZE WHICH MEETS STABILITY CRITERION OF THE DISPERSION TERM
 =  2.199    (WHEN MIN. R.F.=1)  AT K=   1, I=   1, J=  99
     5 CALLS TO GCG PACKAGE FOR TRANSPORT TIME STEP   4 IN FLOW TIME STEP   1 STRESS PERIOD   9
    15 TOTAL ITERATIONS
 
 SOLVING FOR HEAD 


     2 CALLS TO PCG ROUTINE FOR TIME STEP   1 IN STRESS PERIOD    9
    21 TOTAL ITERATIONS

 MAXIMUM HEAD CHANGE FOR EACH ITERATION (1 INDICATES THE FIRST INNER ITERATION):

    HEAD CHANGE    HEAD CHANGE    HEAD CHANGE    HEAD CHANGE    HEAD CHANGE 
   LAYER,ROW,COL  LAYER,ROW,COL  LAYER,ROW,COL  LAYER,ROW,COL  LAYER,ROW,COL
 ---------------------------------------------------------------------------
  1  0.6648E-03  0  0.1918E-03  0  0.1074E-03  0  0.6176E-04  0  0.4486E-04
   ( 50,  1, 37)  ( 48,  1, 45)  ( 46,  1, 51)  ( 43,  1, 56)  ( 40,  1, 60)
  0  0.2402E-04  0 -0.1521E-04  0 -0.1031E-04  0 -0.5363E-05  0 -0.4137E-05
   ( 50,  1, 56)  (  1,  1, 69)  (  1,  1, 65)  (  1,  1, 42)  (  1,  1, 47)
  0 -0.3300E-05  0 -0.2666E-05  0 -0.2133E-05  0 -0.1422E-05  0 -0.1175E-05
   (  2,  1, 35)  (  1,  1, 38)  (  4,  1,  7)  (  8,  1,  6)  (  1,  1,  6)
  0 -0.1239E-05  0 -0.1340E-05  0 -0.1212E-05  0 -0.1010E-05  0 -0.9415E-06
   (  7,  1,  1)  (  2,  1,  2)  (  1,  1,  5)  ( 49,  1, 10)  ( 49,  1,  3)
  1 -0.1513E-06
   (  3,  1, 33)

 MAXIMUM RESIDUAL FOR EACH ITERATION (1 INDICATES THE FIRST INNER ITERATION):

    RESIDUAL       RESIDUAL       RESIDUAL       RESIDUAL       RESIDUAL    
   LAYER,ROW,COL  LAYER,ROW,COL  LAYER,ROW,COL  LAYER,ROW,COL  LAYER,ROW,COL
 ---------------------------------------------------------------------------
  1   4.954      0   3.094      0  -1.626      0 -0.9175      0 -0.7658    
   ( 50,  1, 39)  ( 50,  1, 32)  ( 49,  1, 32)  ( 50,  1, 51)  ( 50,  1, 30)
  0 -0.4050      0 -0.2934      0  0.1620      0  0.8997E-01  0  0.6124E-01
   ( 49,  1, 40)  ( 49,  1, 36)  ( 50,  1, 30)  ( 49,  1, 41)  ( 49,  1, 36)
  0  0.4371E-01  0 -0.4508E-01  0  0.3574E-01  0  0.2697E-01  0  0.1863E-01
   ( 42,  1,  1)  ( 43,  1,  2)  ( 40,  1,  2)  ( 43,  1,  2)  ( 45,  1,  2)
  0 -0.1891E-01  0  0.1943E-01  0  0.1784E-01  0  0.1610E-01  0  0.1125E-01
   ( 43,  1,  2)  (  1,  1, 99)  ( 43,  1,  2)  ( 45,  1,  2)  (  2,  1, 99)
  1 -0.7107E-02
   (  1,  1, 99)


 FLOW MODEL IS TRANSIENT
 FLOW MODEL CONTAINS CONSTANT-HEAD CELLS


 MAXIMUM STEPSIZE DURING WHICH ANY PARTICLE CANNOT MOVE MORE THAN ONE CELL
 =  9.886    (WHEN MIN. R.F.=1)  AT K=   1, I=   1, J=  99

 MAXIMUM STEPSIZE WHICH MEETS STABILITY CRITERION OF THE ADVECTION TERM
 (FOR PURE FINITE-DIFFERENCE OPTION, MIXELM=0) 
 =  9.633    (WHEN MIN. R.F.=1)  AT K=   1, I=   1, J=  99


 TOTAL NUMBER OF POINT SOURCES/SINKS PRESENT IN THE FLOW MODEL =       100

 MAXIMUM STEPSIZE WHICH MEETS STABILITY CRITERION OF THE SINK & SOURCE TERM
 =  122.8    (WHEN MIN. R.F.=1)  AT K=   1, I=   1, J=   1

 MAXIMUM STEPSIZE WHICH MEETS STABILITY CRITERION OF THE DISPERSION TERM
 =  2.200    (WHEN MIN. R.F.=1)  AT K=   1, I=   1, J=  99
     5 CALLS TO GCG PACKAGE FOR TRANSPORT TIME STEP   5 IN FLOW TIME STEP   1 STRESS PERIOD   9
    15 TOTAL ITERATIONS
 
 SOLVING FOR HEAD 


     2 CALLS TO PCG ROUTINE FOR TIME STEP   1 IN STRESS PERIOD    9
    16 TOTAL ITERATIONS

 MAXIMUM HEAD CHANGE FOR EACH ITERATION (1 INDICATES THE FIRST INNER ITERATION):

    HEAD CHANGE    HEAD CHANGE    HEAD CHANGE    HEAD CHANGE    HEAD CHANGE 
   LAYER,ROW,COL  LAYER,ROW,COL  LAYER,ROW,COL  LAYER,ROW,COL  LAYER,ROW,COL
 ---------------------------------------------------------------------------
  1  0.6636E-03  0  0.1914E-03  0  0.1073E-03  0  0.6174E-04  0  0.4492E-04
   ( 50,  1, 37)  ( 48,  1, 45)  ( 46,  1, 51)  ( 43,  1, 56)  ( 40,  1, 59)
  0  0.2398E-04  0 -0.1520E-04  0 -0.1017E-04  0 -0.5326E-05  0 -0.4080E-05
   ( 50,  1, 56)  (  1,  1, 69)  (  1,  1, 64)  (  1,  1, 41)  (  1,  1, 47)
  0 -0.3110E-05  0 -0.2419E-05  0 -0.1924E-05  0 -0.1262E-05  0 -0.9753E-06
   (  2,  1, 35)  (  1,  1, 38)  (  4,  1,  7)  (  8,  1,  6)  (  1,  1,  6)
  1 -0.2312E-06
   (  1,  1, 92)

 MAXIMUM RESIDUAL FOR EACH ITERATION (1 INDICATES THE FIRST INNER ITERATION):

    RESIDUAL       RESIDUAL       RESIDUAL       RESIDUAL       RESIDUAL    
   LAYER,ROW,COL  LAYER,ROW,COL  LAYER,ROW,COL  LAYER,ROW,COL  LAYER,ROW,COL
 ---------------------------------------------------------------------------
  1   4.940      0   3.093      0  -1.597      0 -0.9117      0 -0.7633    
   ( 50,  1, 39)  ( 50,  1, 32)  ( 49,  1, 32)  ( 50,  1, 51)  ( 50,  1, 30)
  0 -0.4040      0 -0.2931      0  0.1619      0  0.8854E-01  0  0.5931E-01
   ( 49,  1, 40)  ( 49,  1, 36)  ( 50,  1, 30)  ( 49,  1, 41)  ( 49,  1, 36)
  0  0.4337E-01  0 -0.4389E-01  0  0.3244E-01  0  0.2361E-01  0  0.1567E-01
   ( 42,  1,  1)  ( 43,  1,  2)  ( 40,  1,  2)  ( 43,  1,  2)  ( 45,  1,  2)
  1  0.4321E-02
   ( 34,  1,  3)


 FLOW MODEL IS TRANSIENT
 FLOW MODEL CONTAINS CONSTANT-HEAD CELLS


 MAXIMUM STEPSIZE DURING WHICH ANY PARTICLE CANNOT MOVE MORE THAN ONE CELL
 =  9.889    (WHEN MIN. R.F.=1)  AT K=   1, I=   1, J=  99

 MAXIMUM STEPSIZE WHICH MEETS STABILITY CRITERION OF THE ADVECTION TERM
 (FOR PURE FINITE-DIFFERENCE OPTION, MIXELM=0) 
 =  9.636    (WHEN MIN. R.F.=1)  AT K=   1, I=   1, J=  99


 TOTAL NUMBER OF POINT SOURCES/SINKS PRESENT IN THE FLOW MODEL =       100

 MAXIMUM STEPSIZE WHICH MEETS STABILITY CRITERION OF THE SINK & SOURCE TERM
 =  122.8    (WHEN MIN. R.F.=1)  AT K=   1, I=   1, J=   1

 MAXIMUM STEPSIZE WHICH MEETS STABILITY CRITERION OF THE DISPERSION TERM
 =  2.201    (WHEN MIN. R.F.=1)  AT K=   1, I=   1, J=  99
     5 CALLS TO GCG PACKAGE FOR TRANSPORT TIME STEP   6 IN FLOW TIME STEP   1 STRESS PERIOD   9
    15 TOTAL ITERATIONS
 
 SOLVING FOR HEAD 


     2 CALLS TO PCG ROUTINE FOR TIME STEP   1 IN STRESS PERIOD    9
    21 TOTAL ITERATIONS

 MAXIMUM HEAD CHANGE FOR EACH ITERATION (1 INDICATES THE FIRST INNER ITERATION):

    HEAD CHANGE    HEAD CHANGE    HEAD CHANGE    HEAD CHANGE    HEAD CHANGE 
   LAYER,ROW,COL  LAYER,ROW,COL  LAYER,ROW,COL  LAYER,ROW,COL  LAYER,ROW,COL
 ---------------------------------------------------------------------------
  1  0.6623E-03  0  0.1910E-03  0  0.1069E-03  0  0.6148E-04  0  0.4464E-04
   ( 50,  1, 37)  ( 48,  1, 45)  ( 46,  1, 51)  ( 43,  1, 56)  ( 40,  1, 59)
  0  0.2391E-04  0 -0.1484E-04  0 -0.1018E-04  0 -0.5354E-05  0 -0.4068E-05
   ( 50,  1, 56)  (  1,  1, 68)  (  1,  1, 66)  (  1,  1, 42)  (  1,  1, 47)
  0 -0.3282E-05  0 -0.2662E-05  0 -0.2125E-05  0 -0.1414E-05  0 -0.1163E-05
   (  2,  1, 35)  (  1,  1, 38)  (  4,  1,  6)  (  8,  1,  6)  (  1,  1,  6)
  0 -0.1227E-05  0 -0.1333E-05  0 -0.1198E-05  0 -0.1004E-05  0 -0.9383E-06
   (  7,  1,  1)  (  2,  1,  3)  (  1,  1,  5)  ( 42,  1,  2)  ( 49,  1,  3)
  1 -0.1504E-06
   (  4,  1, 34)

 MAXIMUM RESIDUAL FOR EACH ITERATION (1 INDICATES THE FIRST INNER ITERATION):

    RESIDUAL       RESIDUAL       RESIDUAL       RESIDUAL       RESIDUAL    
   LAYER,ROW,COL  LAYER,ROW,COL  LAYER,ROW,COL  LAYER,ROW,COL  LAYER,ROW,COL
 ---------------------------------------------------------------------------
  1   4.926      0   3.102      0  -1.589      0 -0.9115      0 -0.7617    
   ( 50,  1, 39)  ( 50,  1, 32)  ( 49,  1, 31)  ( 50,  1, 51)  ( 50,  1, 30)
  0 -0.4056      0 -0.2928      0  0.1643      0  0.8968E-01  0  0.6086E-01
   ( 49,  1, 40)  ( 49,  1, 36)  ( 50,  1, 30)  ( 49,  1, 41)  ( 49,  1, 36)
  0  0.4379E-01  0 -0.4554E-01  0  0.3588E-01  0  0.2698E-01  0  0.1857E-01
   ( 42,  1,  1)  ( 43,  1,  2)  ( 40,  1,  2)  ( 43,  1,  2)  ( 45,  1,  2)
  0 -0.1894E-01  0  0.1948E-01  0  0.1793E-01  0  0.1610E-01  0  0.1118E-01
   ( 43,  1,  2)  (  1,  1, 99)  ( 43,  1,  2)  ( 45,  1,  2)  (  2,  1, 99)
  1 -0.7113E-02
   (  1,  1, 99)


 FLOW MODEL IS TRANSIENT
 FLOW MODEL CONTAINS CONSTANT-HEAD CELLS


 MAXIMUM STEPSIZE DURING WHICH ANY PARTICLE CANNOT MOVE MORE THAN ONE CELL
 =  9.892    (WHEN MIN. R.F.=1)  AT K=   1, I=   1, J=  99

 MAXIMUM STEPSIZE WHICH MEETS STABILITY CRITERION OF THE ADVECTION TERM
 (FOR PURE FINITE-DIFFERENCE OPTION, MIXELM=0) 
 =  9.639    (WHEN MIN. R.F.=1)  AT K=   1, I=   1, J=  99


 TOTAL NUMBER OF POINT SOURCES/SINKS PRESENT IN THE FLOW MODEL =       100

 MAXIMUM STEPSIZE WHICH MEETS STABILITY CRITERION OF THE SINK & SOURCE TERM
 =  122.8    (WHEN MIN. R.F.=1)  AT K=   1, I=   1, J=   1

 MAXIMUM STEPSIZE WHICH MEETS STABILITY CRITERION OF THE DISPERSION TERM
 =  2.202    (WHEN MIN. R.F.=1)  AT K=   1, I=   1, J=  99
     5 CALLS TO GCG PACKAGE FOR TRANSPORT TIME STEP   7 IN FLOW TIME STEP   1 STRESS PERIOD   9
    15 TOTAL ITERATIONS
 
 SOLVING FOR HEAD 


     2 CALLS TO PCG ROUTINE FOR TIME STEP   1 IN STRESS PERIOD    9
    20 TOTAL ITERATIONS

 MAXIMUM HEAD CHANGE FOR EACH ITERATION (1 INDICATES THE FIRST INNER ITERATION):

    HEAD CHANGE    HEAD CHANGE    HEAD CHANGE    HEAD CHANGE    HEAD CHANGE 
   LAYER,ROW,COL  LAYER,ROW,COL  LAYER,ROW,COL  LAYER,ROW,COL  LAYER,ROW,COL
 ---------------------------------------------------------------------------
  1  0.6607E-03  0  0.1904E-03  0  0.1068E-03  0  0.6148E-04  0  0.4476E-04
   ( 50,  1, 37)  ( 48,  1, 45)  ( 46,  1, 51)  ( 43,  1, 55)  ( 40,  1, 59)
  0  0.2379E-04  0 -0.1507E-04  0 -0.1012E-04  0 -0.5401E-05  0 -0.4120E-05
   ( 50,  1, 56)  (  1,  1, 68)  (  1,  1, 64)  (  1,  1, 41)  (  1,  1, 47)
  0 -0.3218E-05  0 -0.2573E-05  0 -0.2127E-05  0 -0.1429E-05  0 -0.1156E-05
   (  2,  1, 35)  (  1,  1, 38)  (  4,  1,  7)  (  8,  1,  6)  (  1,  1,  6)
  0 -0.1198E-05  0 -0.1294E-05  0 -0.1170E-05  0 -0.9884E-06  1 -0.2080E-06
   (  3,  1,  1)  (  2,  1,  3)  (  1,  1,  5)  ( 42,  1,  2)  ( 50,  1,  3)

 MAXIMUM RESIDUAL FOR EACH ITERATION (1 INDICATES THE FIRST INNER ITERATION):

    RESIDUAL       RESIDUAL       RESIDUAL       RESIDUAL       RESIDUAL    
   LAYER,ROW,COL  LAYER,ROW,COL  LAYER,ROW,COL  LAYER,ROW,COL  LAYER,ROW,COL
 ---------------------------------------------------------------------------
  1   4.915      0   3.092      0  -1.606      0 -0.9070      0 -0.7571    
   ( 50,  1, 38)  ( 50,  1, 32)  ( 49,  1, 31)  ( 50,  1, 51)  ( 50,  1, 30)
  0 -0.4050      0 -0.2926      0  0.1624      0  0.8916E-01  0  0.5989E-01
   ( 49,  1, 40)  ( 49,  1, 36)  ( 50,  1, 30)  ( 49,  1, 40)  ( 49,  1, 36)
  0  0.4471E-01  0 -0.4597E-01  0  0.3466E-01  0  0.2633E-01  0  0.1842E-01
   ( 42,  1,  1)  ( 43,  1,  2)  ( 41,  1,  2)  ( 43,  1,  2)  ( 45,  1,  2)
  0 -0.1865E-01  0  0.1913E-01  0  0.1760E-01  0  0.1603E-01  1 -0.5664E-02
   ( 43,  1,  2)  (  1,  1, 99)  ( 43,  1,  2)  ( 45,  1,  2)  (  1,  1, 99)


 FLOW MODEL IS TRANSIENT
 FLOW MODEL CONTAINS CONSTANT-HEAD CELLS


 MAXIMUM STEPSIZE DURING WHICH ANY PARTICLE CANNOT MOVE MORE THAN ONE CELL
 =  9.895    (WHEN MIN. R.F.=1)  AT K=   1, I=   1, J=  99

 MAXIMUM STEPSIZE WHICH MEETS STABILITY CRITERION OF THE ADVECTION TERM
 (FOR PURE FINITE-DIFFERENCE OPTION, MIXELM=0) 
 =  9.642    (WHEN MIN. R.F.=1)  AT K=   1, I=   1, J=  99


 TOTAL NUMBER OF POINT SOURCES/SINKS PRESENT IN THE FLOW MODEL =       100

 MAXIMUM STEPSIZE WHICH MEETS STABILITY CRITERION OF THE SINK & SOURCE TERM
 =  122.8    (WHEN MIN. R.F.=1)  AT K=   1, I=   1, J=   1

 MAXIMUM STEPSIZE WHICH MEETS STABILITY CRITERION OF THE DISPERSION TERM
 =  2.202    (WHEN MIN. R.F.=1)  AT K=   1, I=   1, J=  99
     5 CALLS TO GCG PACKAGE FOR TRANSPORT TIME STEP   8 IN FLOW TIME STEP   1 STRESS PERIOD   9
    15 TOTAL ITERATIONS
 
 SOLVING FOR HEAD 


     2 CALLS TO PCG ROUTINE FOR TIME STEP   1 IN STRESS PERIOD    9
    16 TOTAL ITERATIONS

 MAXIMUM HEAD CHANGE FOR EACH ITERATION (1 INDICATES THE FIRST INNER ITERATION):

    HEAD CHANGE    HEAD CHANGE    HEAD CHANGE    HEAD CHANGE    HEAD CHANGE 
   LAYER,ROW,COL  LAYER,ROW,COL  LAYER,ROW,COL  LAYER,ROW,COL  LAYER,ROW,COL
 ---------------------------------------------------------------------------
  1  0.6589E-03  0  0.1896E-03  0  0.1064E-03  0  0.6123E-04  0  0.4448E-04
   ( 50,  1, 37)  ( 48,  1, 45)  ( 46,  1, 51)  ( 43,  1, 56)  ( 40,  1, 59)
  0  0.2374E-04  0 -0.1467E-04  0 -0.1025E-04  0 -0.5301E-05  0 -0.3917E-05
   ( 50,  1, 56)  (  1,  1, 70)  (  1,  1, 66)  (  1,  1, 42)  (  1,  1, 47)
  0 -0.3091E-05  0 -0.2473E-05  0 -0.1943E-05  0 -0.1255E-05  0 -0.9715E-06
   (  2,  1, 35)  (  1,  1, 38)  (  4,  1,  6)  (  8,  1,  5)  (  1,  1,  6)
  1 -0.2415E-06
   (  1,  1, 92)

 MAXIMUM RESIDUAL FOR EACH ITERATION (1 INDICATES THE FIRST INNER ITERATION):

    RESIDUAL       RESIDUAL       RESIDUAL       RESIDUAL       RESIDUAL    
   LAYER,ROW,COL  LAYER,ROW,COL  LAYER,ROW,COL  LAYER,ROW,COL  LAYER,ROW,COL
 ---------------------------------------------------------------------------
  1   4.908      0   3.082      0  -1.617      0 -0.9050      0 -0.7558    
   ( 50,  1, 38)  ( 50,  1, 32)  ( 49,  1, 31)  ( 50,  1, 51)  ( 50,  1, 29)
  0 -0.4045      0 -0.2928      0  0.1614      0  0.8831E-01  0  0.5923E-01
   ( 49,  1, 40)  ( 49,  1, 36)  ( 50,  1, 30)  ( 49,  1, 40)  ( 49,  1, 36)
  0  0.4301E-01  0 -0.4372E-01  0  0.3303E-01  0  0.2440E-01  0  0.1582E-01
   ( 42,  1,  1)  ( 43,  1,  2)  ( 40,  1,  2)  ( 43,  1,  2)  ( 45,  1,  2)
  1  0.4787E-02
   ( 34,  1,  3)


 FLOW MODEL IS TRANSIENT
 FLOW MODEL CONTAINS CONSTANT-HEAD CELLS


 MAXIMUM STEPSIZE DURING WHICH ANY PARTICLE CANNOT MOVE MORE THAN ONE CELL
 =  9.898    (WHEN MIN. R.F.=1)  AT K=   1, I=   1, J=  99

 MAXIMUM STEPSIZE WHICH MEETS STABILITY CRITERION OF THE ADVECTION TERM
 (FOR PURE FINITE-DIFFERENCE OPTION, MIXELM=0) 
 =  9.644    (WHEN MIN. R.F.=1)  AT K=   1, I=   1, J=  99


 TOTAL NUMBER OF POINT SOURCES/SINKS PRESENT IN THE FLOW MODEL =       100

 MAXIMUM STEPSIZE WHICH MEETS STABILITY CRITERION OF THE SINK & SOURCE TERM
 =  122.8    (WHEN MIN. R.F.=1)  AT K=   1, I=   1, J=   1

 MAXIMUM STEPSIZE WHICH MEETS STABILITY CRITERION OF THE DISPERSION TERM
 =  2.203    (WHEN MIN. R.F.=1)  AT K=   1, I=   1, J=  99
     5 CALLS TO GCG PACKAGE FOR TRANSPORT TIME STEP   9 IN FLOW TIME STEP   1 STRESS PERIOD   9
    15 TOTAL ITERATIONS
 
 SOLVING FOR HEAD 


     2 CALLS TO PCG ROUTINE FOR TIME STEP   1 IN STRESS PERIOD    9
    16 TOTAL ITERATIONS

 MAXIMUM HEAD CHANGE FOR EACH ITERATION (1 INDICATES THE FIRST INNER ITERATION):

    HEAD CHANGE    HEAD CHANGE    HEAD CHANGE    HEAD CHANGE    HEAD CHANGE 
   LAYER,ROW,COL  LAYER,ROW,COL  LAYER,ROW,COL  LAYER,ROW,COL  LAYER,ROW,COL
 ---------------------------------------------------------------------------
  1  0.6571E-03  0  0.1890E-03  0  0.1060E-03  0  0.6103E-04  0  0.4442E-04
   ( 50,  1, 37)  ( 48,  1, 45)  ( 46,  1, 51)  ( 43,  1, 55)  ( 40,  1, 59)
  0  0.2375E-04  0 -0.1460E-04  0 -0.1009E-04  0 -0.5260E-05  0 -0.3929E-05
   ( 50,  1, 55)  (  1,  1, 69)  (  1,  1, 66)  (  1,  1, 42)  (  1,  1, 47)
  0 -0.3126E-05  0 -0.2524E-05  0 -0.1975E-05  0 -0.1263E-05  0 -0.9906E-06
   (  2,  1, 34)  (  1,  1, 38)  (  4,  1,  6)  (  8,  1,  5)  (  1,  1,  6)
  1 -0.2455E-06
   (  1,  1, 92)

 MAXIMUM RESIDUAL FOR EACH ITERATION (1 INDICATES THE FIRST INNER ITERATION):

    RESIDUAL       RESIDUAL       RESIDUAL       RESIDUAL       RESIDUAL    
   LAYER,ROW,COL  LAYER,ROW,COL  LAYER,ROW,COL  LAYER,ROW,COL  LAYER,ROW,COL
 ---------------------------------------------------------------------------
  1   4.902      0   3.073      0  -1.630      0 -0.9044      0 -0.7570    
   ( 50,  1, 38)  ( 50,  1, 32)  ( 49,  1, 31)  ( 50,  1, 51)  ( 50,  1, 29)
  0 -0.4031      0 -0.2922      0  0.1612      0  0.8852E-01  0  0.5961E-01
   ( 49,  1, 40)  ( 49,  1, 36)  ( 50,  1, 30)  ( 49,  1, 40)  ( 49,  1, 36)
  0  0.4309E-01  0 -0.4475E-01  0  0.3371E-01  0  0.2454E-01  0  0.1607E-01
   ( 42,  1,  1)  ( 43,  1,  2)  ( 41,  1,  2)  ( 43,  1,  2)  ( 45,  1,  2)
  1  0.5185E-02
   ( 34,  1,  3)


 FLOW MODEL IS TRANSIENT
 FLOW MODEL CONTAINS CONSTANT-HEAD CELLS


 MAXIMUM STEPSIZE DURING WHICH ANY PARTICLE CANNOT MOVE MORE THAN ONE CELL
 =  9.901    (WHEN MIN. R.F.=1)  AT K=   1, I=   1, J=  99

 MAXIMUM STEPSIZE WHICH MEETS STABILITY CRITERION OF THE ADVECTION TERM
 (FOR PURE FINITE-DIFFERENCE OPTION, MIXELM=0) 
 =  9.647    (WHEN MIN. R.F.=1)  AT K=   1, I=   1, J=  99


 TOTAL NUMBER OF POINT SOURCES/SINKS PRESENT IN THE FLOW MODEL =       100

 MAXIMUM STEPSIZE WHICH MEETS STABILITY CRITERION OF THE SINK & SOURCE TERM
 =  122.8    (WHEN MIN. R.F.=1)  AT K=   1, I=   1, J=   1

 MAXIMUM STEPSIZE WHICH MEETS STABILITY CRITERION OF THE DISPERSION TERM
 =  2.203    (WHEN MIN. R.F.=1)  AT K=   1, I=   1, J=  99
     5 CALLS TO GCG PACKAGE FOR TRANSPORT TIME STEP  10 IN FLOW TIME STEP   1 STRESS PERIOD   9
    15 TOTAL ITERATIONS
 
 SOLVING FOR HEAD 


     2 CALLS TO PCG ROUTINE FOR TIME STEP   1 IN STRESS PERIOD    9
    20 TOTAL ITERATIONS

 MAXIMUM HEAD CHANGE FOR EACH ITERATION (1 INDICATES THE FIRST INNER ITERATION):

    HEAD CHANGE    HEAD CHANGE    HEAD CHANGE    HEAD CHANGE    HEAD CHANGE 
   LAYER,ROW,COL  LAYER,ROW,COL  LAYER,ROW,COL  LAYER,ROW,COL  LAYER,ROW,COL
 ---------------------------------------------------------------------------
  1  0.6550E-03  0  0.1883E-03  0  0.1058E-03  0  0.6096E-04  0  0.4435E-04
   ( 50,  1, 37)  ( 48,  1, 45)  ( 46,  1, 50)  ( 43,  1, 55)  ( 40,  1, 59)
  0  0.2373E-04  0 -0.1452E-04  0 -0.1007E-04  0 -0.5262E-05  0 -0.3924E-05
   ( 50,  1, 55)  (  1,  1, 68)  (  1,  1, 66)  (  1,  1, 42)  (  1,  1, 47)
  0 -0.3138E-05  0 -0.2545E-05  0 -0.2011E-05  0 -0.1288E-05  0 -0.1015E-05
   (  2,  1, 34)  (  1,  1, 38)  (  4,  1,  6)  (  8,  1,  5)  (  1,  1,  6)
  0 -0.1032E-05  0 -0.1130E-05  0 -0.1055E-05  0 -0.8537E-06  1 -0.1905E-06
   (  3,  1,  1)  (  2,  1,  3)  (  1,  1,  5)  ( 42,  1,  2)  ( 50,  1,  3)

 MAXIMUM RESIDUAL FOR EACH ITERATION (1 INDICATES THE FIRST INNER ITERATION):

    RESIDUAL       RESIDUAL       RESIDUAL       RESIDUAL       RESIDUAL    
   LAYER,ROW,COL  LAYER,ROW,COL  LAYER,ROW,COL  LAYER,ROW,COL  LAYER,ROW,COL
 ---------------------------------------------------------------------------
  1   4.896      0   3.049      0  -1.641      0 -0.9019      0 -0.7571    
   ( 50,  1, 38)  ( 50,  1, 32)  ( 49,  1, 31)  ( 50,  1, 50)  ( 50,  1, 29)
  0 -0.4018      0 -0.2918      0  0.1591      0  0.8855E-01  0  0.5951E-01
   ( 49,  1, 40)  ( 49,  1, 36)  ( 50,  1, 30)  ( 49,  1, 40)  ( 49,  1, 36)
  0  0.4336E-01  0 -0.4533E-01  0  0.3454E-01  0  0.2486E-01  0  0.1640E-01
   ( 42,  1,  1)  ( 43,  1,  2)  ( 41,  1,  2)  ( 43,  1,  2)  ( 45,  1,  2)
  0 -0.1635E-01  0  0.1680E-01  0  0.1564E-01  0  0.1435E-01  1 -0.4827E-02
   ( 43,  1,  2)  (  1,  1, 99)  ( 43,  1,  2)  ( 45,  1,  2)  (  1,  1, 99)


 FLOW MODEL IS TRANSIENT
 FLOW MODEL CONTAINS CONSTANT-HEAD CELLS


 MAXIMUM STEPSIZE DURING WHICH ANY PARTICLE CANNOT MOVE MORE THAN ONE CELL
 =  9.903    (WHEN MIN. R.F.=1)  AT K=   1, I=   1, J=  99

 MAXIMUM STEPSIZE WHICH MEETS STABILITY CRITERION OF THE ADVECTION TERM
 (FOR PURE FINITE-DIFFERENCE OPTION, MIXELM=0) 
 =  9.649    (WHEN MIN. R.F.=1)  AT K=   1, I=   1, J=  99


 TOTAL NUMBER OF POINT SOURCES/SINKS PRESENT IN THE FLOW MODEL =       100

 MAXIMUM STEPSIZE WHICH MEETS STABILITY CRITERION OF THE SINK & SOURCE TERM
 =  122.8    (WHEN MIN. R.F.=1)  AT K=   1, I=   1, J=   1

 MAXIMUM STEPSIZE WHICH MEETS STABILITY CRITERION OF THE DISPERSION TERM
 =  2.204    (WHEN MIN. R.F.=1)  AT K=   1, I=   1, J=  99
     5 CALLS TO GCG PACKAGE FOR TRANSPORT TIME STEP  11 IN FLOW TIME STEP   1 STRESS PERIOD   9
    15 TOTAL ITERATIONS
 
 SOLVING FOR HEAD 


     2 CALLS TO PCG ROUTINE FOR TIME STEP   1 IN STRESS PERIOD    9
    20 TOTAL ITERATIONS

 MAXIMUM HEAD CHANGE FOR EACH ITERATION (1 INDICATES THE FIRST INNER ITERATION):

    HEAD CHANGE    HEAD CHANGE    HEAD CHANGE    HEAD CHANGE    HEAD CHANGE 
   LAYER,ROW,COL  LAYER,ROW,COL  LAYER,ROW,COL  LAYER,ROW,COL  LAYER,ROW,COL
 ---------------------------------------------------------------------------
  1  0.6528E-03  0  0.1878E-03  0  0.1056E-03  0  0.6080E-04  0  0.4421E-04
   ( 50,  1, 37)  ( 48,  1, 45)  ( 46,  1, 50)  ( 43,  1, 55)  ( 40,  1, 59)
  0  0.2356E-04  0 -0.1454E-04  0 -0.1024E-04  0 -0.5342E-05  0 -0.3957E-05
   ( 50,  1, 55)  (  3,  1, 62)  (  1,  1, 66)  (  1,  1, 42)  (  1,  1, 47)
  0 -0.3189E-05  0 -0.2615E-05  0 -0.2165E-05  0 -0.1423E-05  0 -0.1147E-05
   (  2,  1, 34)  (  1,  1, 38)  (  4,  1,  6)  (  8,  1,  5)  (  1,  1,  6)
  0 -0.1205E-05  0 -0.1310E-05  0 -0.1174E-05  0 -0.9979E-06  1 -0.2047E-06
   (  3,  1,  1)  (  2,  1,  3)  (  1,  1,  5)  ( 42,  1,  2)  ( 50,  1,  3)

 MAXIMUM RESIDUAL FOR EACH ITERATION (1 INDICATES THE FIRST INNER ITERATION):

    RESIDUAL       RESIDUAL       RESIDUAL       RESIDUAL       RESIDUAL    
   LAYER,ROW,COL  LAYER,ROW,COL  LAYER,ROW,COL  LAYER,ROW,COL  LAYER,ROW,COL
 ---------------------------------------------------------------------------
  1   4.883      0   3.023      0  -1.642      0 -0.8998      0 -0.7591    
   ( 50,  1, 38)  ( 50,  1, 32)  ( 49,  1, 31)  ( 50,  1, 50)  ( 50,  1, 29)
  0 -0.4013      0 -0.2925      0  0.1558      0  0.8850E-01  0  0.5927E-01
   ( 49,  1, 40)  ( 49,  1, 36)  ( 50,  1, 30)  ( 49,  1, 40)  ( 49,  1, 36)
  0  0.4443E-01  0 -0.4610E-01  0  0.3590E-01  0  0.2687E-01  0  0.1838E-01
   ( 42,  1,  1)  ( 43,  1,  2)  ( 41,  1,  2)  ( 43,  1,  2)  ( 45,  1,  2)
  0 -0.1898E-01  0  0.1942E-01  0  0.1803E-01  0  0.1618E-01  1 -0.5499E-02
   ( 43,  1,  2)  (  1,  1, 99)  ( 43,  1,  2)  ( 45,  1,  2)  (  1,  1, 99)


 FLOW MODEL IS TRANSIENT
 FLOW MODEL CONTAINS CONSTANT-HEAD CELLS


 MAXIMUM STEPSIZE DURING WHICH ANY PARTICLE CANNOT MOVE MORE THAN ONE CELL
 =  9.906    (WHEN MIN. R.F.=1)  AT K=   1, I=   1, J=  99

 MAXIMUM STEPSIZE WHICH MEETS STABILITY CRITERION OF THE ADVECTION TERM
 (FOR PURE FINITE-DIFFERENCE OPTION, MIXELM=0) 
 =  9.652    (WHEN MIN. R.F.=1)  AT K=   1, I=   1, J=  99


 TOTAL NUMBER OF POINT SOURCES/SINKS PRESENT IN THE FLOW MODEL =       100

 MAXIMUM STEPSIZE WHICH MEETS STABILITY CRITERION OF THE SINK & SOURCE TERM
 =  122.8    (WHEN MIN. R.F.=1)  AT K=   1, I=   1, J=   1

 MAXIMUM STEPSIZE WHICH MEETS STABILITY CRITERION OF THE DISPERSION TERM
 =  2.205    (WHEN MIN. R.F.=1)  AT K=   1, I=   1, J=  99
     5 CALLS TO GCG PACKAGE FOR TRANSPORT TIME STEP  12 IN FLOW TIME STEP   1 STRESS PERIOD   9
    15 TOTAL ITERATIONS
 
 SOLVING FOR HEAD 


     2 CALLS TO PCG ROUTINE FOR TIME STEP   1 IN STRESS PERIOD    9
    20 TOTAL ITERATIONS

 MAXIMUM HEAD CHANGE FOR EACH ITERATION (1 INDICATES THE FIRST INNER ITERATION):

    HEAD CHANGE    HEAD CHANGE    HEAD CHANGE    HEAD CHANGE    HEAD CHANGE 
   LAYER,ROW,COL  LAYER,ROW,COL  LAYER,ROW,COL  LAYER,ROW,COL  LAYER,ROW,COL
 ---------------------------------------------------------------------------
  1  0.6518E-03  0  0.1872E-03  0  0.1054E-03  0  0.6074E-04  0  0.4417E-04
   ( 50,  1, 36)  ( 48,  1, 44)  ( 46,  1, 50)  ( 43,  1, 55)  ( 40,  1, 59)
  0  0.2348E-04  0 -0.1448E-04  0 -0.1021E-04  0 -0.5335E-05  0 -0.3945E-05
   ( 50,  1, 55)  (  3,  1, 62)  (  1,  1, 66)  (  1,  1, 41)  (  1,  1, 47)
  0 -0.3156E-05  0 -0.2591E-05  0 -0.2142E-05  0 -0.1399E-05  0 -0.1122E-05
   (  2,  1, 34)  (  1,  1, 38)  (  4,  1,  6)  (  8,  1,  5)  (  1,  1,  6)
  0 -0.1177E-05  0 -0.1282E-05  0 -0.1158E-05  0 -0.9800E-06  1 -0.2036E-06
   (  3,  1,  1)  (  2,  1,  3)  (  1,  1,  5)  ( 42,  1,  2)  ( 50,  1,  3)

 MAXIMUM RESIDUAL FOR EACH ITERATION (1 INDICATES THE FIRST INNER ITERATION):

    RESIDUAL       RESIDUAL       RESIDUAL       RESIDUAL       RESIDUAL    
   LAYER,ROW,COL  LAYER,ROW,COL  LAYER,ROW,COL  LAYER,ROW,COL  LAYER,ROW,COL
 ---------------------------------------------------------------------------
  1   4.872      0   2.994      0  -1.638      0 -0.8956      0 -0.7588    
   ( 50,  1, 38)  ( 50,  1, 32)  ( 49,  1, 31)  ( 50,  1, 50)  ( 50,  1, 29)
  0 -0.4002      0 -0.2923      0  0.1564      0  0.8813E-01  0  0.5878E-01
   ( 49,  1, 39)  ( 49,  1, 36)  ( 50,  1, 29)  ( 49,  1, 40)  ( 49,  1, 35)
  0  0.4404E-01  0 -0.4606E-01  0  0.3592E-01  0  0.2654E-01  0  0.1802E-01
   ( 42,  1,  1)  ( 43,  1,  2)  ( 41,  1,  2)  ( 43,  1,  2)  ( 45,  1,  2)
  0 -0.1855E-01  0  0.1908E-01  0  0.1781E-01  0  0.1597E-01  1 -0.5386E-02
   ( 43,  1,  2)  (  1,  1, 99)  ( 43,  1,  2)  ( 45,  1,  2)  (  1,  1, 99)


 FLOW MODEL IS TRANSIENT
 FLOW MODEL CONTAINS CONSTANT-HEAD CELLS


 MAXIMUM STEPSIZE DURING WHICH ANY PARTICLE CANNOT MOVE MORE THAN ONE CELL
 =  9.908    (WHEN MIN. R.F.=1)  AT K=   1, I=   1, J=  99

 MAXIMUM STEPSIZE WHICH MEETS STABILITY CRITERION OF THE ADVECTION TERM
 (FOR PURE FINITE-DIFFERENCE OPTION, MIXELM=0) 
 =  9.654    (WHEN MIN. R.F.=1)  AT K=   1, I=   1, J=  99


 TOTAL NUMBER OF POINT SOURCES/SINKS PRESENT IN THE FLOW MODEL =       100

 MAXIMUM STEPSIZE WHICH MEETS STABILITY CRITERION OF THE SINK & SOURCE TERM
 =  122.8    (WHEN MIN. R.F.=1)  AT K=   1, I=   1, J=   1

 MAXIMUM STEPSIZE WHICH MEETS STABILITY CRITERION OF THE DISPERSION TERM
 =  2.205    (WHEN MIN. R.F.=1)  AT K=   1, I=   1, J=  99
     5 CALLS TO GCG PACKAGE FOR TRANSPORT TIME STEP  13 IN FLOW TIME STEP   1 STRESS PERIOD   9
    15 TOTAL ITERATIONS
 
 SOLVING FOR HEAD 


     2 CALLS TO PCG ROUTINE FOR TIME STEP   1 IN STRESS PERIOD    9
    16 TOTAL ITERATIONS

 MAXIMUM HEAD CHANGE FOR EACH ITERATION (1 INDICATES THE FIRST INNER ITERATION):

    HEAD CHANGE    HEAD CHANGE    HEAD CHANGE    HEAD CHANGE    HEAD CHANGE 
   LAYER,ROW,COL  LAYER,ROW,COL  LAYER,ROW,COL  LAYER,ROW,COL  LAYER,ROW,COL
 ---------------------------------------------------------------------------
  1  0.6507E-03  0  0.1866E-03  0  0.1050E-03  0  0.6050E-04  0  0.4398E-04
   ( 50,  1, 36)  ( 48,  1, 44)  ( 46,  1, 50)  ( 43,  1, 55)  ( 40,  1, 59)
  0  0.2347E-04  0 -0.1441E-04  0 -0.1017E-04  0 -0.5240E-05  0 -0.3850E-05
   ( 50,  1, 55)  (  3,  1, 62)  (  1,  1, 66)  (  1,  1, 41)  (  1,  1, 47)
  0 -0.3044E-05  0 -0.2462E-05  0 -0.1977E-05  0 -0.1256E-05  0 -0.9694E-06
   (  2,  1, 34)  (  1,  1, 38)  (  4,  1,  6)  (  8,  1,  5)  (  1,  1,  6)
  1 -0.2427E-06
   (  1,  1, 91)

 MAXIMUM RESIDUAL FOR EACH ITERATION (1 INDICATES THE FIRST INNER ITERATION):

    RESIDUAL       RESIDUAL       RESIDUAL       RESIDUAL       RESIDUAL    
   LAYER,ROW,COL  LAYER,ROW,COL  LAYER,ROW,COL  LAYER,ROW,COL  LAYER,ROW,COL
 ---------------------------------------------------------------------------
  1   4.859      0   3.002      0  -1.629      0 -0.8951      0 -0.7585    
   ( 50,  1, 38)  ( 50,  1, 31)  ( 49,  1, 31)  ( 50,  1, 50)  ( 50,  1, 29)
  0 -0.4006      0 -0.2912      0  0.1569      0  0.8734E-01  0  0.5803E-01
   ( 49,  1, 39)  ( 49,  1, 36)  ( 50,  1, 29)  ( 49,  1, 40)  ( 49,  1, 35)
  0  0.4305E-01  0 -0.4478E-01  0  0.3417E-01  0  0.2434E-01  0  0.1579E-01
   ( 42,  1,  1)  ( 43,  1,  2)  ( 41,  1,  2)  ( 43,  1,  2)  ( 45,  1,  2)
  1  0.4850E-02
   ( 34,  1,  3)


 FLOW MODEL IS TRANSIENT
 FLOW MODEL CONTAINS CONSTANT-HEAD CELLS


 MAXIMUM STEPSIZE DURING WHICH ANY PARTICLE CANNOT MOVE MORE THAN ONE CELL
 =  9.911    (WHEN MIN. R.F.=1)  AT K=   1, I=   1, J=  99

 MAXIMUM STEPSIZE WHICH MEETS STABILITY CRITERION OF THE ADVECTION TERM
 (FOR PURE FINITE-DIFFERENCE OPTION, MIXELM=0) 
 =  9.657    (WHEN MIN. R.F.=1)  AT K=   1, I=   1, J=  99


 TOTAL NUMBER OF POINT SOURCES/SINKS PRESENT IN THE FLOW MODEL =       100

 MAXIMUM STEPSIZE WHICH MEETS STABILITY CRITERION OF THE SINK & SOURCE TERM
 =  122.8    (WHEN MIN. R.F.=1)  AT K=   1, I=   1, J=   1

 MAXIMUM STEPSIZE WHICH MEETS STABILITY CRITERION OF THE DISPERSION TERM
 =  2.206    (WHEN MIN. R.F.=1)  AT K=   1, I=   1, J=  99
     5 CALLS TO GCG PACKAGE FOR TRANSPORT TIME STEP  14 IN FLOW TIME STEP   1 STRESS PERIOD   9
    15 TOTAL ITERATIONS
 
 SOLVING FOR HEAD 


     2 CALLS TO PCG ROUTINE FOR TIME STEP   1 IN STRESS PERIOD    9
    20 TOTAL ITERATIONS

 MAXIMUM HEAD CHANGE FOR EACH ITERATION (1 INDICATES THE FIRST INNER ITERATION):

    HEAD CHANGE    HEAD CHANGE    HEAD CHANGE    HEAD CHANGE    HEAD CHANGE 
   LAYER,ROW,COL  LAYER,ROW,COL  LAYER,ROW,COL  LAYER,ROW,COL  LAYER,ROW,COL
 ---------------------------------------------------------------------------
  1  0.6493E-03  0  0.1860E-03  0  0.1045E-03  0  0.6031E-04  0  0.4387E-04
   ( 50,  1, 36)  ( 48,  1, 44)  ( 46,  1, 50)  ( 43,  1, 55)  ( 40,  1, 59)
  0  0.2344E-04  0 -0.1434E-04  0 -0.1010E-04  0 -0.5222E-05  0 -0.3870E-05
   ( 50,  1, 55)  (  1,  1, 69)  (  1,  1, 66)  (  1,  1, 41)  (  1,  1, 47)
  0 -0.3101E-05  0 -0.2540E-05  0 -0.2028E-05  0 -0.1294E-05  0 -0.1020E-05
   (  2,  1, 34)  (  1,  1, 37)  (  4,  1,  6)  (  5,  1, 13)  (  1,  1,  6)
  0 -0.1049E-05  0 -0.1141E-05  0 -0.1059E-05  0 -0.8749E-06  1 -0.1957E-06
   (  3,  1,  1)  (  2,  1,  3)  (  1,  1,  5)  ( 42,  1,  2)  ( 50,  1,  3)

 MAXIMUM RESIDUAL FOR EACH ITERATION (1 INDICATES THE FIRST INNER ITERATION):

    RESIDUAL       RESIDUAL       RESIDUAL       RESIDUAL       RESIDUAL    
   LAYER,ROW,COL  LAYER,ROW,COL  LAYER,ROW,COL  LAYER,ROW,COL  LAYER,ROW,COL
 ---------------------------------------------------------------------------
  1   4.849      0   3.008      0  -1.617      0 -0.8954      0 -0.7566    
   ( 50,  1, 38)  ( 50,  1, 31)  ( 49,  1, 31)  ( 50,  1, 50)  ( 50,  1, 29)
  0 -0.4004      0 -0.2909      0  0.1588      0  0.8754E-01  0  0.5861E-01
   ( 49,  1, 39)  ( 49,  1, 36)  ( 50,  1, 29)  ( 49,  1, 40)  ( 49,  1, 35)
  0  0.4324E-01  0 -0.4608E-01  0  0.3586E-01  0  0.2486E-01  0  0.1650E-01
   ( 42,  1,  1)  ( 43,  1,  2)  ( 41,  1,  2)  ( 43,  1,  2)  ( 45,  1,  2)
  0 -0.1670E-01  0  0.1708E-01  0  0.1608E-01  0  0.1464E-01  1 -0.4739E-02
   ( 43,  1,  2)  (  1,  1, 99)  ( 43,  1,  2)  ( 45,  1,  2)  (  1,  1, 99)


 FLOW MODEL IS TRANSIENT
 FLOW MODEL CONTAINS CONSTANT-HEAD CELLS


 MAXIMUM STEPSIZE DURING WHICH ANY PARTICLE CANNOT MOVE MORE THAN ONE CELL
 =  9.913    (WHEN MIN. R.F.=1)  AT K=   1, I=   1, J=  99

 MAXIMUM STEPSIZE WHICH MEETS STABILITY CRITERION OF THE ADVECTION TERM
 (FOR PURE FINITE-DIFFERENCE OPTION, MIXELM=0) 
 =  9.659    (WHEN MIN. R.F.=1)  AT K=   1, I=   1, J=  99


 TOTAL NUMBER OF POINT SOURCES/SINKS PRESENT IN THE FLOW MODEL =       100

 MAXIMUM STEPSIZE WHICH MEETS STABILITY CRITERION OF THE SINK & SOURCE TERM
 =  122.8    (WHEN MIN. R.F.=1)  AT K=   1, I=   1, J=   1

 MAXIMUM STEPSIZE WHICH MEETS STABILITY CRITERION OF THE DISPERSION TERM
 =  2.206    (WHEN MIN. R.F.=1)  AT K=   1, I=   1, J=  99
     5 CALLS TO GCG PACKAGE FOR TRANSPORT TIME STEP  15 IN FLOW TIME STEP   1 STRESS PERIOD   9
    15 TOTAL ITERATIONS
 
 SOLVING FOR HEAD 


     2 CALLS TO PCG ROUTINE FOR TIME STEP   1 IN STRESS PERIOD    9
    20 TOTAL ITERATIONS

 MAXIMUM HEAD CHANGE FOR EACH ITERATION (1 INDICATES THE FIRST INNER ITERATION):

    HEAD CHANGE    HEAD CHANGE    HEAD CHANGE    HEAD CHANGE    HEAD CHANGE 
   LAYER,ROW,COL  LAYER,ROW,COL  LAYER,ROW,COL  LAYER,ROW,COL  LAYER,ROW,COL
 ---------------------------------------------------------------------------
  1  0.6479E-03  0  0.1856E-03  0  0.1043E-03  0  0.6025E-04  0  0.4382E-04
   ( 50,  1, 36)  ( 48,  1, 44)  ( 46,  1, 50)  ( 43,  1, 55)  ( 40,  1, 59)
  0  0.2334E-04  0  0.1442E-04  0 -0.1017E-04  0 -0.5230E-05  0 -0.3838E-05
   ( 50,  1, 55)  ( 49,  1,  1)  (  1,  1, 66)  (  1,  1, 41)  (  1,  1, 47)
  0 -0.3049E-05  0 -0.2480E-05  0 -0.2021E-05  0 -0.1287E-05  0 -0.1001E-05
   (  2,  1, 34)  (  1,  1, 38)  (  4,  1,  6)  (  9,  1,  6)  (  1,  1,  6)
  0 -0.1023E-05  0 -0.1106E-05  0 -0.1034E-05  0 -0.8489E-06  1 -0.1901E-06
   (  3,  1,  1)  (  2,  1,  3)  (  1,  1,  5)  ( 42,  1,  2)  ( 50,  1,  3)

 MAXIMUM RESIDUAL FOR EACH ITERATION (1 INDICATES THE FIRST INNER ITERATION):

    RESIDUAL       RESIDUAL       RESIDUAL       RESIDUAL       RESIDUAL    
   LAYER,ROW,COL  LAYER,ROW,COL  LAYER,ROW,COL  LAYER,ROW,COL  LAYER,ROW,COL
 ---------------------------------------------------------------------------
  1   4.832      0   3.009      0  -1.597      0 -0.8926      0 -0.7557    
   ( 50,  1, 38)  ( 50,  1, 31)  ( 49,  1, 31)  ( 50,  1, 50)  ( 50,  1, 29)
  0 -0.4008      0 -0.2898      0  0.1585      0  0.8715E-01  0  0.5794E-01
   ( 49,  1, 39)  ( 49,  1, 36)  ( 50,  1, 29)  ( 49,  1, 40)  ( 49,  1, 35)
  0  0.4322E-01  0 -0.4547E-01  0  0.3526E-01  0  0.2471E-01  0  0.1623E-01
   ( 42,  1,  1)  ( 43,  1,  2)  ( 41,  1,  2)  ( 43,  1,  2)  ( 45,  1,  2)
  0 -0.1627E-01  0  0.1664E-01  0  0.1568E-01  0  0.1443E-01  1 -0.4597E-02
   ( 43,  1,  2)  (  1,  1, 99)  ( 43,  1,  2)  ( 45,  1,  2)  (  1,  1, 99)


 FLOW MODEL IS TRANSIENT
 FLOW MODEL CONTAINS CONSTANT-HEAD CELLS


 MAXIMUM STEPSIZE DURING WHICH ANY PARTICLE CANNOT MOVE MORE THAN ONE CELL
 =  9.916    (WHEN MIN. R.F.=1)  AT K=   1, I=   1, J=  99

 MAXIMUM STEPSIZE WHICH MEETS STABILITY CRITERION OF THE ADVECTION TERM
 (FOR PURE FINITE-DIFFERENCE OPTION, MIXELM=0) 
 =  9.661    (WHEN MIN. R.F.=1)  AT K=   1, I=   1, J=  99


 TOTAL NUMBER OF POINT SOURCES/SINKS PRESENT IN THE FLOW MODEL =       100

 MAXIMUM STEPSIZE WHICH MEETS STABILITY CRITERION OF THE SINK & SOURCE TERM
 =  122.8    (WHEN MIN. R.F.=1)  AT K=   1, I=   1, J=   1

 MAXIMUM STEPSIZE WHICH MEETS STABILITY CRITERION OF THE DISPERSION TERM
 =  2.207    (WHEN MIN. R.F.=1)  AT K=   1, I=   1, J=  99
     5 CALLS TO GCG PACKAGE FOR TRANSPORT TIME STEP  16 IN FLOW TIME STEP   1 STRESS PERIOD   9
    15 TOTAL ITERATIONS
 
 SOLVING FOR HEAD 


     2 CALLS TO PCG ROUTINE FOR TIME STEP   1 IN STRESS PERIOD    9
    20 TOTAL ITERATIONS

 MAXIMUM HEAD CHANGE FOR EACH ITERATION (1 INDICATES THE FIRST INNER ITERATION):

    HEAD CHANGE    HEAD CHANGE    HEAD CHANGE    HEAD CHANGE    HEAD CHANGE 
   LAYER,ROW,COL  LAYER,ROW,COL  LAYER,ROW,COL  LAYER,ROW,COL  LAYER,ROW,COL
 ---------------------------------------------------------------------------
  1  0.6464E-03  0  0.1849E-03  0  0.1038E-03  0  0.5985E-04  0  0.4358E-04
   ( 50,  1, 36)  ( 48,  1, 44)  ( 46,  1, 50)  ( 43,  1, 55)  ( 40,  1, 59)
  0  0.2332E-04  0  0.1444E-04  0 -0.1014E-04  0 -0.5221E-05  0 -0.3828E-05
   ( 50,  1, 55)  ( 49,  1,  1)  (  1,  1, 66)  (  1,  1, 41)  (  1,  1, 47)
  0 -0.3048E-05  0 -0.2500E-05  0 -0.2034E-05  0 -0.1298E-05  0 -0.1013E-05
   (  2,  1, 34)  (  1,  1, 37)  (  4,  1,  6)  (  9,  1,  6)  (  1,  1,  6)
  0 -0.1043E-05  0 -0.1131E-05  0 -0.1049E-05  0 -0.8692E-06  1 -0.1933E-06
   (  3,  1,  1)  (  2,  1,  3)  (  1,  1,  5)  ( 42,  1,  2)  ( 50,  1,  3)

 MAXIMUM RESIDUAL FOR EACH ITERATION (1 INDICATES THE FIRST INNER ITERATION):

    RESIDUAL       RESIDUAL       RESIDUAL       RESIDUAL       RESIDUAL    
   LAYER,ROW,COL  LAYER,ROW,COL  LAYER,ROW,COL  LAYER,ROW,COL  LAYER,ROW,COL
 ---------------------------------------------------------------------------
  1   4.816      0   3.009      0  -1.576      0 -0.8937      0 -0.7538    
   ( 50,  1, 38)  ( 50,  1, 31)  ( 49,  1, 31)  ( 50,  1, 50)  ( 50,  1, 29)
  0 -0.4004      0 -0.2892      0  0.1594      0  0.8700E-01  0  0.5802E-01
   ( 49,  1, 39)  ( 49,  1, 35)  ( 50,  1, 29)  ( 49,  1, 40)  ( 49,  1, 35)
  0  0.4321E-01  0 -0.4570E-01  0  0.3576E-01  0  0.2476E-01  0  0.1643E-01
   ( 42,  1,  1)  ( 43,  1,  2)  ( 41,  1,  2)  ( 43,  1,  2)  ( 45,  1,  2)
  0 -0.1664E-01  0  0.1697E-01  0  0.1602E-01  0  0.1466E-01  1 -0.4654E-02
   ( 43,  1,  2)  (  1,  1, 99)  ( 43,  1,  2)  ( 45,  1,  2)  (  1,  1, 99)


 FLOW MODEL IS TRANSIENT
 FLOW MODEL CONTAINS CONSTANT-HEAD CELLS


 MAXIMUM STEPSIZE DURING WHICH ANY PARTICLE CANNOT MOVE MORE THAN ONE CELL
 =  9.918    (WHEN MIN. R.F.=1)  AT K=   1, I=   1, J=  99

 MAXIMUM STEPSIZE WHICH MEETS STABILITY CRITERION OF THE ADVECTION TERM
 (FOR PURE FINITE-DIFFERENCE OPTION, MIXELM=0) 
 =  9.664    (WHEN MIN. R.F.=1)  AT K=   1, I=   1, J=  99


 TOTAL NUMBER OF POINT SOURCES/SINKS PRESENT IN THE FLOW MODEL =       100

 MAXIMUM STEPSIZE WHICH MEETS STABILITY CRITERION OF THE SINK & SOURCE TERM
 =  122.8    (WHEN MIN. R.F.=1)  AT K=   1, I=   1, J=   1

 MAXIMUM STEPSIZE WHICH MEETS STABILITY CRITERION OF THE DISPERSION TERM
 =  2.207    (WHEN MIN. R.F.=1)  AT K=   1, I=   1, J=  99
     5 CALLS TO GCG PACKAGE FOR TRANSPORT TIME STEP  17 IN FLOW TIME STEP   1 STRESS PERIOD   9
    15 TOTAL ITERATIONS
 
 SOLVING FOR HEAD 


     2 CALLS TO PCG ROUTINE FOR TIME STEP   1 IN STRESS PERIOD    9
    16 TOTAL ITERATIONS

 MAXIMUM HEAD CHANGE FOR EACH ITERATION (1 INDICATES THE FIRST INNER ITERATION):

    HEAD CHANGE    HEAD CHANGE    HEAD CHANGE    HEAD CHANGE    HEAD CHANGE 
   LAYER,ROW,COL  LAYER,ROW,COL  LAYER,ROW,COL  LAYER,ROW,COL  LAYER,ROW,COL
 ---------------------------------------------------------------------------
  1  0.6451E-03  0  0.1846E-03  0  0.1037E-03  0  0.5986E-04  0  0.4362E-04
   ( 50,  1, 36)  ( 48,  1, 44)  ( 46,  1, 50)  ( 43,  1, 55)  ( 40,  1, 59)
  0  0.2332E-04  0  0.1453E-04  0 -0.1018E-04  0 -0.5175E-05  0 -0.3768E-05
   ( 50,  1, 55)  ( 49,  1,  1)  (  1,  1, 65)  (  1,  1, 41)  (  1,  1, 46)
  0 -0.2974E-05  0 -0.2419E-05  0 -0.1927E-05  0 -0.1214E-05  0 -0.9190E-06
   (  2,  1, 34)  (  1,  1, 37)  (  4,  1,  6)  (  5,  1, 13)  (  1,  1,  6)
  1 -0.2289E-06
   (  1,  1, 91)

 MAXIMUM RESIDUAL FOR EACH ITERATION (1 INDICATES THE FIRST INNER ITERATION):

    RESIDUAL       RESIDUAL       RESIDUAL       RESIDUAL       RESIDUAL    
   LAYER,ROW,COL  LAYER,ROW,COL  LAYER,ROW,COL  LAYER,ROW,COL  LAYER,ROW,COL
 ---------------------------------------------------------------------------
  1   4.803      0   3.004      0  -1.560      0 -0.8910      0 -0.7525    
   ( 50,  1, 37)  ( 50,  1, 31)  ( 49,  1, 31)  ( 50,  1, 50)  ( 50,  1, 29)
  0 -0.3988      0 -0.2898      0  0.1594      0  0.8634E-01  0  0.5768E-01
   ( 49,  1, 39)  ( 49,  1, 35)  ( 50,  1, 29)  ( 49,  1, 40)  ( 49,  1, 35)
  0  0.4257E-01  0 -0.4508E-01  0  0.3465E-01  0  0.2353E-01  0  0.1510E-01
   ( 42,  1,  1)  ( 43,  1,  2)  ( 41,  1,  2)  ( 43,  1,  2)  ( 45,  1,  2)
  1  0.4529E-02
   ( 34,  1,  3)


 FLOW MODEL IS TRANSIENT
 FLOW MODEL CONTAINS CONSTANT-HEAD CELLS


 MAXIMUM STEPSIZE DURING WHICH ANY PARTICLE CANNOT MOVE MORE THAN ONE CELL
 =  9.921    (WHEN MIN. R.F.=1)  AT K=   1, I=   1, J=  99

 MAXIMUM STEPSIZE WHICH MEETS STABILITY CRITERION OF THE ADVECTION TERM
 (FOR PURE FINITE-DIFFERENCE OPTION, MIXELM=0) 
 =  9.666    (WHEN MIN. R.F.=1)  AT K=   1, I=   1, J=  99


 TOTAL NUMBER OF POINT SOURCES/SINKS PRESENT IN THE FLOW MODEL =       100

 MAXIMUM STEPSIZE WHICH MEETS STABILITY CRITERION OF THE SINK & SOURCE TERM
 =  122.8    (WHEN MIN. R.F.=1)  AT K=   1, I=   1, J=   1

 MAXIMUM STEPSIZE WHICH MEETS STABILITY CRITERION OF THE DISPERSION TERM
 =  2.208    (WHEN MIN. R.F.=1)  AT K=   1, I=   1, J=  99
     5 CALLS TO GCG PACKAGE FOR TRANSPORT TIME STEP  18 IN FLOW TIME STEP   1 STRESS PERIOD   9
    15 TOTAL ITERATIONS
 
 SOLVING FOR HEAD 


     2 CALLS TO PCG ROUTINE FOR TIME STEP   1 IN STRESS PERIOD    9
    20 TOTAL ITERATIONS

 MAXIMUM HEAD CHANGE FOR EACH ITERATION (1 INDICATES THE FIRST INNER ITERATION):

    HEAD CHANGE    HEAD CHANGE    HEAD CHANGE    HEAD CHANGE    HEAD CHANGE 
   LAYER,ROW,COL  LAYER,ROW,COL  LAYER,ROW,COL  LAYER,ROW,COL  LAYER,ROW,COL
 ---------------------------------------------------------------------------
  1  0.6437E-03  0  0.1839E-03  0  0.1035E-03  0  0.5968E-04  0  0.4352E-04
   ( 50,  1, 36)  ( 48,  1, 44)  ( 46,  1, 50)  ( 43,  1, 55)  ( 40,  1, 58)
  0  0.2328E-04  0  0.1428E-04  0 -0.1009E-04  0 -0.5197E-05  0 -0.3864E-05
   ( 50,  1, 55)  ( 50,  1,  1)  (  1,  1, 66)  (  1,  1, 41)  (  1,  1, 46)
  0 -0.3113E-05  0 -0.2598E-05  0 -0.2111E-05  0 -0.1374E-05  0 -0.1088E-05
   (  2,  1, 33)  (  1,  1, 37)  (  4,  1,  6)  (  5,  1, 13)  (  1,  1,  6)
  0 -0.1148E-05  0 -0.1242E-05  0 -0.1116E-05  0 -0.9616E-06  1 -0.2061E-06
   (  3,  1,  1)  (  2,  1,  3)  (  1,  1,  5)  ( 42,  1,  2)  ( 50,  1,  3)

 MAXIMUM RESIDUAL FOR EACH ITERATION (1 INDICATES THE FIRST INNER ITERATION):

    RESIDUAL       RESIDUAL       RESIDUAL       RESIDUAL       RESIDUAL    
   LAYER,ROW,COL  LAYER,ROW,COL  LAYER,ROW,COL  LAYER,ROW,COL  LAYER,ROW,COL
 ---------------------------------------------------------------------------
  1   4.804      0   3.011      0  -1.590      0 -0.8911      0 -0.7510    
   ( 50,  1, 37)  ( 50,  1, 31)  ( 49,  1, 30)  ( 50,  1, 50)  ( 50,  1, 29)
  0 -0.3981      0 -0.2896      0  0.1620      0  0.8725E-01  0  0.5837E-01
   ( 49,  1, 39)  ( 49,  1, 35)  ( 50,  1, 29)  ( 49,  1, 40)  ( 49,  1, 35)
  0  0.4362E-01  0 -0.4750E-01  0  0.3797E-01  0  0.2566E-01  0  0.1753E-01
   ( 42,  1,  1)  ( 43,  1,  2)  ( 41,  1,  2)  ( 43,  1,  2)  ( 45,  1,  2)
  0 -0.1826E-01  0  0.1859E-01  0  0.1758E-01  0  0.1563E-01  1 -0.4938E-02
   ( 43,  1,  2)  (  1,  1, 99)  ( 43,  1,  2)  ( 45,  1,  2)  (  1,  1, 99)


 FLOW MODEL IS TRANSIENT
 FLOW MODEL CONTAINS CONSTANT-HEAD CELLS


 MAXIMUM STEPSIZE DURING WHICH ANY PARTICLE CANNOT MOVE MORE THAN ONE CELL
 =  9.923    (WHEN MIN. R.F.=1)  AT K=   1, I=   1, J=  99

 MAXIMUM STEPSIZE WHICH MEETS STABILITY CRITERION OF THE ADVECTION TERM
 (FOR PURE FINITE-DIFFERENCE OPTION, MIXELM=0) 
 =  9.668    (WHEN MIN. R.F.=1)  AT K=   1, I=   1, J=  99


 TOTAL NUMBER OF POINT SOURCES/SINKS PRESENT IN THE FLOW MODEL =       100

 MAXIMUM STEPSIZE WHICH MEETS STABILITY CRITERION OF THE SINK & SOURCE TERM
 =  122.8    (WHEN MIN. R.F.=1)  AT K=   1, I=   1, J=   1

 MAXIMUM STEPSIZE WHICH MEETS STABILITY CRITERION OF THE DISPERSION TERM
 =  2.208    (WHEN MIN. R.F.=1)  AT K=   1, I=   1, J=  99
     5 CALLS TO GCG PACKAGE FOR TRANSPORT TIME STEP  19 IN FLOW TIME STEP   1 STRESS PERIOD   9
    15 TOTAL ITERATIONS
 
 SOLVING FOR HEAD 


     2 CALLS TO PCG ROUTINE FOR TIME STEP   1 IN STRESS PERIOD    9
    16 TOTAL ITERATIONS

 MAXIMUM HEAD CHANGE FOR EACH ITERATION (1 INDICATES THE FIRST INNER ITERATION):

    HEAD CHANGE    HEAD CHANGE    HEAD CHANGE    HEAD CHANGE    HEAD CHANGE 
   LAYER,ROW,COL  LAYER,ROW,COL  LAYER,ROW,COL  LAYER,ROW,COL  LAYER,ROW,COL
 ---------------------------------------------------------------------------
  1  0.6420E-03  0  0.1836E-03  0  0.1033E-03  0  0.5962E-04  0  0.4342E-04
   ( 50,  1, 36)  ( 48,  1, 44)  ( 46,  1, 50)  ( 43,  1, 55)  ( 40,  1, 59)
  0  0.2321E-04  0  0.1458E-04  0 -0.1017E-04  0 -0.5171E-05  0 -0.3773E-05
   ( 50,  1, 54)  ( 50,  1,  1)  (  1,  1, 65)  (  1,  1, 41)  (  1,  1, 46)
  0 -0.2979E-05  0 -0.2447E-05  0 -0.1978E-05  0 -0.1260E-05  0 -0.9588E-06
   (  2,  1, 34)  (  1,  1, 37)  (  4,  1,  6)  (  5,  1, 13)  (  1,  1,  6)
  1 -0.2413E-06
   (  1,  1, 91)

 MAXIMUM RESIDUAL FOR EACH ITERATION (1 INDICATES THE FIRST INNER ITERATION):

    RESIDUAL       RESIDUAL       RESIDUAL       RESIDUAL       RESIDUAL    
   LAYER,ROW,COL  LAYER,ROW,COL  LAYER,ROW,COL  LAYER,ROW,COL  LAYER,ROW,COL
 ---------------------------------------------------------------------------
  1   4.795      0   3.000      0  -1.608      0 -0.8858      0 -0.7472    
   ( 50,  1, 37)  ( 50,  1, 31)  ( 49,  1, 30)  ( 50,  1, 50)  ( 50,  1, 29)
  0 -0.3972      0 -0.2890      0  0.1598      0  0.8651E-01  0  0.5712E-01
   ( 49,  1, 39)  ( 49,  1, 35)  ( 50,  1, 29)  ( 49,  1, 39)  ( 49,  1, 35)
  0  0.4280E-01  0 -0.4577E-01  0  0.3573E-01  0  0.2403E-01  0  0.1566E-01
   ( 42,  1,  1)  ( 43,  1,  2)  ( 41,  1,  2)  ( 43,  1,  2)  ( 45,  1,  2)
  1  0.4696E-02
   ( 36,  1,  4)


 FLOW MODEL IS TRANSIENT
 FLOW MODEL CONTAINS CONSTANT-HEAD CELLS


 MAXIMUM STEPSIZE DURING WHICH ANY PARTICLE CANNOT MOVE MORE THAN ONE CELL
 =  9.926    (WHEN MIN. R.F.=1)  AT K=   1, I=   1, J=  99

 MAXIMUM STEPSIZE WHICH MEETS STABILITY CRITERION OF THE ADVECTION TERM
 (FOR PURE FINITE-DIFFERENCE OPTION, MIXELM=0) 
 =  9.671    (WHEN MIN. R.F.=1)  AT K=   1, I=   1, J=  99


 TOTAL NUMBER OF POINT SOURCES/SINKS PRESENT IN THE FLOW MODEL =       100

 MAXIMUM STEPSIZE WHICH MEETS STABILITY CRITERION OF THE SINK & SOURCE TERM
 =  122.8    (WHEN MIN. R.F.=1)  AT K=   1, I=   1, J=   1

 MAXIMUM STEPSIZE WHICH MEETS STABILITY CRITERION OF THE DISPERSION TERM
 =  2.209    (WHEN MIN. R.F.=1)  AT K=   1, I=   1, J=  99
     5 CALLS TO GCG PACKAGE FOR TRANSPORT TIME STEP  20 IN FLOW TIME STEP   1 STRESS PERIOD   9
    15 TOTAL ITERATIONS
 
 SOLVING FOR HEAD 


     2 CALLS TO PCG ROUTINE FOR TIME STEP   1 IN STRESS PERIOD    9
    20 TOTAL ITERATIONS

 MAXIMUM HEAD CHANGE FOR EACH ITERATION (1 INDICATES THE FIRST INNER ITERATION):

    HEAD CHANGE    HEAD CHANGE    HEAD CHANGE    HEAD CHANGE    HEAD CHANGE 
   LAYER,ROW,COL  LAYER,ROW,COL  LAYER,ROW,COL  LAYER,ROW,COL  LAYER,ROW,COL
 ---------------------------------------------------------------------------
  1  0.6401E-03  0  0.1829E-03  0  0.1030E-03  0  0.5939E-04  0  0.4326E-04
   ( 50,  1, 36)  ( 48,  1, 44)  ( 46,  1, 49)  ( 43,  1, 54)  ( 40,  1, 58)
  0  0.2317E-04  0  0.1430E-04  0 -0.1009E-04  0 -0.5175E-05  0 -0.3839E-05
   ( 50,  1, 54)  ( 50,  1,  1)  (  1,  1, 65)  (  1,  1, 41)  (  1,  1, 46)
  0 -0.3100E-05  0 -0.2591E-05  0 -0.2118E-05  0 -0.1380E-05  0 -0.1084E-05
   (  2,  1, 33)  (  1,  1, 37)  (  4,  1,  5)  (  5,  1, 13)  (  1,  1,  6)
  0 -0.1151E-05  0 -0.1240E-05  0 -0.1107E-05  0 -0.9638E-06  1 -0.2060E-06
   (  3,  1,  1)  (  2,  1,  3)  (  1,  1,  5)  ( 42,  1,  2)  ( 50,  1,  3)

 MAXIMUM RESIDUAL FOR EACH ITERATION (1 INDICATES THE FIRST INNER ITERATION):

    RESIDUAL       RESIDUAL       RESIDUAL       RESIDUAL       RESIDUAL    
   LAYER,ROW,COL  LAYER,ROW,COL  LAYER,ROW,COL  LAYER,ROW,COL  LAYER,ROW,COL
 ---------------------------------------------------------------------------
  1   4.789      0   2.993      0  -1.613      0 -0.8843      0 -0.7471    
   ( 50,  1, 37)  ( 50,  1, 31)  ( 49,  1, 30)  ( 50,  1, 50)  ( 50,  1, 28)
  0 -0.3971      0 -0.2888      0  0.1600      0  0.8731E-01  0  0.5800E-01
   ( 49,  1, 39)  ( 49,  1, 35)  ( 50,  1, 29)  ( 49,  1, 39)  ( 49,  1, 35)
  0  0.4343E-01  0 -0.4778E-01  0  0.3846E-01  0  0.2551E-01  0  0.1743E-01
   ( 42,  1,  1)  ( 43,  1,  2)  ( 41,  1,  2)  ( 43,  1,  2)  ( 45,  1,  2)
  0 -0.1827E-01  0  0.1859E-01  0  0.1764E-01  0  0.1564E-01  1 -0.4845E-02
   ( 43,  1,  2)  (  1,  1, 99)  ( 43,  1,  2)  ( 45,  1,  2)  (  1,  1, 99)


 FLOW MODEL IS TRANSIENT
 FLOW MODEL CONTAINS CONSTANT-HEAD CELLS


 MAXIMUM STEPSIZE DURING WHICH ANY PARTICLE CANNOT MOVE MORE THAN ONE CELL
 =  9.928    (WHEN MIN. R.F.=1)  AT K=   1, I=   1, J=  99

 MAXIMUM STEPSIZE WHICH MEETS STABILITY CRITERION OF THE ADVECTION TERM
 (FOR PURE FINITE-DIFFERENCE OPTION, MIXELM=0) 
 =  9.673    (WHEN MIN. R.F.=1)  AT K=   1, I=   1, J=  99


 TOTAL NUMBER OF POINT SOURCES/SINKS PRESENT IN THE FLOW MODEL =       100

 MAXIMUM STEPSIZE WHICH MEETS STABILITY CRITERION OF THE SINK & SOURCE TERM
 =  122.8    (WHEN MIN. R.F.=1)  AT K=   1, I=   1, J=   1

 MAXIMUM STEPSIZE WHICH MEETS STABILITY CRITERION OF THE DISPERSION TERM
 =  2.209    (WHEN MIN. R.F.=1)  AT K=   1, I=   1, J=  99
     5 CALLS TO GCG PACKAGE FOR TRANSPORT TIME STEP  21 IN FLOW TIME STEP   1 STRESS PERIOD   9
    15 TOTAL ITERATIONS
 
 SOLVING FOR HEAD 


     2 CALLS TO PCG ROUTINE FOR TIME STEP   1 IN STRESS PERIOD    9
    16 TOTAL ITERATIONS

 MAXIMUM HEAD CHANGE FOR EACH ITERATION (1 INDICATES THE FIRST INNER ITERATION):

    HEAD CHANGE    HEAD CHANGE    HEAD CHANGE    HEAD CHANGE    HEAD CHANGE 
   LAYER,ROW,COL  LAYER,ROW,COL  LAYER,ROW,COL  LAYER,ROW,COL  LAYER,ROW,COL
 ---------------------------------------------------------------------------
  1  0.6382E-03  0  0.1822E-03  0  0.1029E-03  0  0.5933E-04  0  0.4322E-04
   ( 50,  1, 36)  ( 48,  1, 44)  ( 46,  1, 49)  ( 43,  1, 54)  ( 40,  1, 58)
  0  0.2310E-04  0  0.1461E-04  0 -0.1017E-04  0 -0.5134E-05  0 -0.3750E-05
   ( 50,  1, 54)  ( 50,  1,  1)  (  1,  1, 65)  (  1,  1, 41)  (  1,  1, 46)
  0 -0.2954E-05  0 -0.2429E-05  0 -0.1970E-05  0 -0.1253E-05  0 -0.9440E-06
   (  2,  1, 33)  (  1,  1, 37)  (  4,  1,  5)  (  5,  1, 13)  (  1,  1,  6)
  1 -0.2379E-06
   (  4,  1,  2)

 MAXIMUM RESIDUAL FOR EACH ITERATION (1 INDICATES THE FIRST INNER ITERATION):

    RESIDUAL       RESIDUAL       RESIDUAL       RESIDUAL       RESIDUAL    
   LAYER,ROW,COL  LAYER,ROW,COL  LAYER,ROW,COL  LAYER,ROW,COL  LAYER,ROW,COL
 ---------------------------------------------------------------------------
  1   4.779      0   2.975      0  -1.620      0 -0.8800      0 -0.7484    
   ( 50,  1, 37)  ( 50,  1, 31)  ( 49,  1, 30)  ( 50,  1, 50)  ( 50,  1, 28)
  0 -0.3958      0 -0.2881      0  0.1568      0  0.8645E-01  0  0.5679E-01
   ( 49,  1, 39)  ( 49,  1, 35)  ( 50,  1, 29)  ( 49,  1, 39)  ( 49,  1, 35)
  0  0.4254E-01  0 -0.4590E-01  0  0.3602E-01  0  0.2374E-01  0  0.1544E-01
   ( 42,  1,  1)  ( 43,  1,  2)  ( 41,  1,  2)  ( 43,  1,  2)  ( 45,  1,  2)
  1  0.4659E-02
   ( 36,  1,  4)


 FLOW MODEL IS TRANSIENT
 FLOW MODEL CONTAINS CONSTANT-HEAD CELLS


 MAXIMUM STEPSIZE DURING WHICH ANY PARTICLE CANNOT MOVE MORE THAN ONE CELL
 =  9.930    (WHEN MIN. R.F.=1)  AT K=   1, I=   1, J=  99

 MAXIMUM STEPSIZE WHICH MEETS STABILITY CRITERION OF THE ADVECTION TERM
 (FOR PURE FINITE-DIFFERENCE OPTION, MIXELM=0) 
 =  9.675    (WHEN MIN. R.F.=1)  AT K=   1, I=   1, J=  99


 TOTAL NUMBER OF POINT SOURCES/SINKS PRESENT IN THE FLOW MODEL =       100

 MAXIMUM STEPSIZE WHICH MEETS STABILITY CRITERION OF THE SINK & SOURCE TERM
 =  122.8    (WHEN MIN. R.F.=1)  AT K=   1, I=   1, J=   1

 MAXIMUM STEPSIZE WHICH MEETS STABILITY CRITERION OF THE DISPERSION TERM
 =  2.210    (WHEN MIN. R.F.=1)  AT K=   1, I=   1, J=  99
     5 CALLS TO GCG PACKAGE FOR TRANSPORT TIME STEP  22 IN FLOW TIME STEP   1 STRESS PERIOD   9
    15 TOTAL ITERATIONS
 
 SOLVING FOR HEAD 


     2 CALLS TO PCG ROUTINE FOR TIME STEP   1 IN STRESS PERIOD    9
    20 TOTAL ITERATIONS

 MAXIMUM HEAD CHANGE FOR EACH ITERATION (1 INDICATES THE FIRST INNER ITERATION):

    HEAD CHANGE    HEAD CHANGE    HEAD CHANGE    HEAD CHANGE    HEAD CHANGE 
   LAYER,ROW,COL  LAYER,ROW,COL  LAYER,ROW,COL  LAYER,ROW,COL  LAYER,ROW,COL
 ---------------------------------------------------------------------------
  1  0.6364E-03  0  0.1815E-03  0  0.1026E-03  0  0.5915E-04  0  0.4305E-04
   ( 50,  1, 35)  ( 48,  1, 44)  ( 46,  1, 49)  ( 43,  1, 54)  ( 40,  1, 58)
  0  0.2307E-04  0  0.1433E-04  0 -0.1009E-04  0 -0.5138E-05  0 -0.3799E-05
   ( 50,  1, 54)  ( 50,  1,  1)  (  1,  1, 65)  (  1,  1, 40)  (  1,  1, 46)
  0 -0.3056E-05  0 -0.2549E-05  0 -0.2085E-05  0 -0.1349E-05  0 -0.1042E-05
   (  2,  1, 33)  (  1,  1, 37)  (  4,  1,  5)  (  5,  1, 13)  (  1,  1,  6)
  0 -0.1101E-05  0 -0.1183E-05  0 -0.1063E-05  0 -0.9235E-06  1 -0.2010E-06
   (  3,  1,  1)  (  2,  1,  4)  (  1,  1,  5)  ( 42,  1,  2)  ( 50,  1,  3)

 MAXIMUM RESIDUAL FOR EACH ITERATION (1 INDICATES THE FIRST INNER ITERATION):

    RESIDUAL       RESIDUAL       RESIDUAL       RESIDUAL       RESIDUAL    
   LAYER,ROW,COL  LAYER,ROW,COL  LAYER,ROW,COL  LAYER,ROW,COL  LAYER,ROW,COL
 ---------------------------------------------------------------------------
  1   4.770      0   2.954      0  -1.627      0 -0.8809      0 -0.7491    
   ( 50,  1, 37)  ( 50,  1, 31)  ( 49,  1, 30)  ( 50,  1, 49)  ( 50,  1, 28)
  0 -0.3952      0 -0.2885      0  0.1564      0  0.8691E-01  0  0.5759E-01
   ( 49,  1, 39)  ( 49,  1, 35)  ( 50,  1, 29)  ( 49,  1, 39)  ( 49,  1, 35)
  0  0.4301E-01  0 -0.4760E-01  0  0.3831E-01  0  0.2479E-01  0  0.1679E-01
   ( 42,  1,  1)  ( 43,  1,  2)  ( 41,  1,  2)  ( 43,  1,  2)  ( 45,  1,  2)
  0 -0.1747E-01  0  0.1776E-01  0  0.1696E-01  0  0.1514E-01  1 -0.4556E-02
   ( 43,  1,  2)  (  1,  1, 99)  ( 43,  1,  2)  ( 45,  1,  2)  (  1,  1, 99)


 FLOW MODEL IS TRANSIENT
 FLOW MODEL CONTAINS CONSTANT-HEAD CELLS


 MAXIMUM STEPSIZE DURING WHICH ANY PARTICLE CANNOT MOVE MORE THAN ONE CELL
 =  9.933    (WHEN MIN. R.F.=1)  AT K=   1, I=   1, J=  99

 MAXIMUM STEPSIZE WHICH MEETS STABILITY CRITERION OF THE ADVECTION TERM
 (FOR PURE FINITE-DIFFERENCE OPTION, MIXELM=0) 
 =  9.678    (WHEN MIN. R.F.=1)  AT K=   1, I=   1, J=  99


 TOTAL NUMBER OF POINT SOURCES/SINKS PRESENT IN THE FLOW MODEL =       100

 MAXIMUM STEPSIZE WHICH MEETS STABILITY CRITERION OF THE SINK & SOURCE TERM
 =  122.8    (WHEN MIN. R.F.=1)  AT K=   1, I=   1, J=   1

 MAXIMUM STEPSIZE WHICH MEETS STABILITY CRITERION OF THE DISPERSION TERM
 =  2.211    (WHEN MIN. R.F.=1)  AT K=   1, I=   1, J=  99
     5 CALLS TO GCG PACKAGE FOR TRANSPORT TIME STEP  23 IN FLOW TIME STEP   1 STRESS PERIOD   9
    15 TOTAL ITERATIONS
 
 SOLVING FOR HEAD 


     2 CALLS TO PCG ROUTINE FOR TIME STEP   1 IN STRESS PERIOD    9
    16 TOTAL ITERATIONS

 MAXIMUM HEAD CHANGE FOR EACH ITERATION (1 INDICATES THE FIRST INNER ITERATION):

    HEAD CHANGE    HEAD CHANGE    HEAD CHANGE    HEAD CHANGE    HEAD CHANGE 
   LAYER,ROW,COL  LAYER,ROW,COL  LAYER,ROW,COL  LAYER,ROW,COL  LAYER,ROW,COL
 ---------------------------------------------------------------------------
  1  0.6354E-03  0  0.1810E-03  0  0.1023E-03  0  0.5903E-04  0  0.4300E-04
   ( 50,  1, 35)  ( 48,  1, 43)  ( 46,  1, 49)  ( 43,  1, 54)  ( 40,  1, 58)
  0  0.2301E-04  0  0.1462E-04  0 -0.1015E-04  0 -0.5066E-05  0 -0.3688E-05
   ( 50,  1, 54)  ( 50,  1,  1)  (  1,  1, 65)  (  1,  1, 40)  (  1,  1, 46)
  0 -0.2899E-05  0 -0.2370E-05  0 -0.1914E-05  0 -0.1202E-05  0 -0.8814E-06
   (  2,  1, 33)  (  1,  1, 37)  (  4,  1,  5)  (  5,  1, 13)  (  1,  1,  6)
  1 -0.2362E-06
   (  4,  1,  2)

 MAXIMUM RESIDUAL FOR EACH ITERATION (1 INDICATES THE FIRST INNER ITERATION):

    RESIDUAL       RESIDUAL       RESIDUAL       RESIDUAL       RESIDUAL    
   LAYER,ROW,COL  LAYER,ROW,COL  LAYER,ROW,COL  LAYER,ROW,COL  LAYER,ROW,COL
 ---------------------------------------------------------------------------
  1   4.754      0   2.920      0  -1.624      0 -0.8772      0 -0.7491    
   ( 50,  1, 37)  ( 50,  1, 31)  ( 49,  1, 30)  ( 50,  1, 49)  ( 50,  1, 28)
  0 -0.3951      0 -0.2877      0  0.1522      0  0.8585E-01  0  0.5627E-01
   ( 49,  1, 38)  ( 49,  1, 35)  ( 50,  1, 28)  ( 49,  1, 39)  ( 49,  1, 35)
  0 -0.4269E-01  0 -0.4552E-01  0  0.3558E-01  0  0.2277E-01  0  0.1453E-01
   ( 41,  1,  2)  ( 43,  1,  2)  ( 41,  1,  2)  ( 43,  1,  2)  ( 45,  1,  2)
  1  0.4356E-02
   ( 36,  1,  4)


 FLOW MODEL IS TRANSIENT
 FLOW MODEL CONTAINS CONSTANT-HEAD CELLS


 MAXIMUM STEPSIZE DURING WHICH ANY PARTICLE CANNOT MOVE MORE THAN ONE CELL
 =  9.935    (WHEN MIN. R.F.=1)  AT K=   1, I=   1, J=  99

 MAXIMUM STEPSIZE WHICH MEETS STABILITY CRITERION OF THE ADVECTION TERM
 (FOR PURE FINITE-DIFFERENCE OPTION, MIXELM=0) 
 =  9.680    (WHEN MIN. R.F.=1)  AT K=   1, I=   1, J=  99


 TOTAL NUMBER OF POINT SOURCES/SINKS PRESENT IN THE FLOW MODEL =       100

 MAXIMUM STEPSIZE WHICH MEETS STABILITY CRITERION OF THE SINK & SOURCE TERM
 =  122.8    (WHEN MIN. R.F.=1)  AT K=   1, I=   1, J=   1

 MAXIMUM STEPSIZE WHICH MEETS STABILITY CRITERION OF THE DISPERSION TERM
 =  2.211    (WHEN MIN. R.F.=1)  AT K=   1, I=   1, J=  99
     5 CALLS TO GCG PACKAGE FOR TRANSPORT TIME STEP  24 IN FLOW TIME STEP   1 STRESS PERIOD   9
    15 TOTAL ITERATIONS
 
 SOLVING FOR HEAD 


     2 CALLS TO PCG ROUTINE FOR TIME STEP   1 IN STRESS PERIOD    9
    16 TOTAL ITERATIONS

 MAXIMUM HEAD CHANGE FOR EACH ITERATION (1 INDICATES THE FIRST INNER ITERATION):

    HEAD CHANGE    HEAD CHANGE    HEAD CHANGE    HEAD CHANGE    HEAD CHANGE 
   LAYER,ROW,COL  LAYER,ROW,COL  LAYER,ROW,COL  LAYER,ROW,COL  LAYER,ROW,COL
 ---------------------------------------------------------------------------
  1  0.6342E-03  0  0.1804E-03  0  0.1020E-03  0  0.5882E-04  0  0.4287E-04
   ( 50,  1, 35)  ( 48,  1, 43)  ( 46,  1, 49)  ( 43,  1, 54)  ( 40,  1, 58)
  0  0.2299E-04  0  0.1436E-04  0 -0.1003E-04  0 -0.5061E-05  0 -0.3718E-05
   ( 50,  1, 54)  ( 50,  1,  1)  (  1,  1, 65)  (  1,  1, 40)  (  1,  1, 46)
  0 -0.2960E-05  0 -0.2442E-05  0 -0.1975E-05  0 -0.1255E-05  0 -0.9329E-06
   (  2,  1, 33)  (  1,  1, 37)  (  4,  1,  5)  (  4,  1, 11)  (  1,  1,  6)
  1 -0.2410E-06
   (  4,  1,  2)

 MAXIMUM RESIDUAL FOR EACH ITERATION (1 INDICATES THE FIRST INNER ITERATION):

    RESIDUAL       RESIDUAL       RESIDUAL       RESIDUAL       RESIDUAL    
   LAYER,ROW,COL  LAYER,ROW,COL  LAYER,ROW,COL  LAYER,ROW,COL  LAYER,ROW,COL
 ---------------------------------------------------------------------------
  1   4.744      0   2.917      0  -1.618      0 -0.8790      0 -0.7503    
   ( 50,  1, 37)  ( 50,  1, 30)  ( 49,  1, 30)  ( 50,  1, 49)  ( 50,  1, 28)
  0 -0.3948      0 -0.2875      0  0.1549      0  0.8614E-01  0  0.5673E-01
   ( 49,  1, 38)  ( 49,  1, 35)  ( 50,  1, 28)  ( 49,  1, 39)  ( 49,  1, 35)
  0 -0.4278E-01  0 -0.4672E-01  0  0.3708E-01  0  0.2318E-01  0  0.1524E-01
   ( 41,  1,  2)  ( 43,  1,  2)  ( 41,  1,  2)  ( 43,  1,  2)  ( 45,  1,  2)
  1  0.4860E-02
   ( 36,  1,  4)


 FLOW MODEL IS TRANSIENT
 FLOW MODEL CONTAINS CONSTANT-HEAD CELLS


 MAXIMUM STEPSIZE DURING WHICH ANY PARTICLE CANNOT MOVE MORE THAN ONE CELL
 =  9.938    (WHEN MIN. R.F.=1)  AT K=   1, I=   1, J=  99

 MAXIMUM STEPSIZE WHICH MEETS STABILITY CRITERION OF THE ADVECTION TERM
 (FOR PURE FINITE-DIFFERENCE OPTION, MIXELM=0) 
 =  9.682    (WHEN MIN. R.F.=1)  AT K=   1, I=   1, J=  99


 TOTAL NUMBER OF POINT SOURCES/SINKS PRESENT IN THE FLOW MODEL =       100

 MAXIMUM STEPSIZE WHICH MEETS STABILITY CRITERION OF THE SINK & SOURCE TERM
 =  122.8    (WHEN MIN. R.F.=1)  AT K=   1, I=   1, J=   1

 MAXIMUM STEPSIZE WHICH MEETS STABILITY CRITERION OF THE DISPERSION TERM
 =  2.212    (WHEN MIN. R.F.=1)  AT K=   1, I=   1, J=  99
     5 CALLS TO GCG PACKAGE FOR TRANSPORT TIME STEP  25 IN FLOW TIME STEP   1 STRESS PERIOD   9
    15 TOTAL ITERATIONS
 
 SOLVING FOR HEAD 


     2 CALLS TO PCG ROUTINE FOR TIME STEP   1 IN STRESS PERIOD    9
    20 TOTAL ITERATIONS

 MAXIMUM HEAD CHANGE FOR EACH ITERATION (1 INDICATES THE FIRST INNER ITERATION):

    HEAD CHANGE    HEAD CHANGE    HEAD CHANGE    HEAD CHANGE    HEAD CHANGE 
   LAYER,ROW,COL  LAYER,ROW,COL  LAYER,ROW,COL  LAYER,ROW,COL  LAYER,ROW,COL
 ---------------------------------------------------------------------------
  1  0.6330E-03  0  0.1801E-03  0  0.1017E-03  0  0.5873E-04  0  0.4276E-04
   ( 50,  1, 35)  ( 48,  1, 43)  ( 46,  1, 49)  ( 43,  1, 54)  ( 40,  1, 58)
  0  0.2290E-04  0  0.1429E-04  0 -0.1007E-04  0 -0.5094E-05  0 -0.3747E-05
   ( 50,  1, 54)  ( 50,  1,  1)  (  1,  1, 65)  (  1,  1, 40)  (  1,  1, 46)
  0 -0.3009E-05  0 -0.2509E-05  0 -0.2072E-05  0 -0.1335E-05  0 -0.1011E-05
   (  2,  1, 33)  (  1,  1, 37)  (  4,  1,  5)  (  4,  1, 11)  (  1,  1,  6)
  0 -0.1070E-05  0 -0.1145E-05  0 -0.1021E-05  0 -0.8942E-06  1 -0.1964E-06
   (  3,  1,  1)  (  2,  1,  4)  (  1,  1,  5)  ( 42,  1,  2)  ( 50,  1,  3)

 MAXIMUM RESIDUAL FOR EACH ITERATION (1 INDICATES THE FIRST INNER ITERATION):

    RESIDUAL       RESIDUAL       RESIDUAL       RESIDUAL       RESIDUAL    
   LAYER,ROW,COL  LAYER,ROW,COL  LAYER,ROW,COL  LAYER,ROW,COL  LAYER,ROW,COL
 ---------------------------------------------------------------------------
  1   4.732      0   2.930      0  -1.605      0 -0.8752      0 -0.7498    
   ( 50,  1, 37)  ( 50,  1, 30)  ( 49,  1, 30)  ( 50,  1, 49)  ( 50,  1, 28)
  0 -0.3953      0 -0.2874      0  0.1563      0  0.8622E-01  0  0.5682E-01
   ( 49,  1, 38)  ( 49,  1, 35)  ( 50,  1, 28)  ( 49,  1, 39)  ( 49,  1, 34)
  0 -0.4357E-01  0 -0.4755E-01  0  0.3842E-01  0  0.2407E-01  0  0.1628E-01
   ( 41,  1,  2)  ( 43,  1,  2)  ( 41,  1,  2)  ( 43,  1,  2)  ( 45,  1,  2)
  0 -0.1690E-01  0  0.1712E-01  0  0.1646E-01  0  0.1470E-01  1 -0.4281E-02
   ( 43,  1,  2)  (  1,  1, 99)  ( 43,  1,  2)  ( 45,  1,  2)  (  1,  1, 99)


 FLOW MODEL IS TRANSIENT
 FLOW MODEL CONTAINS CONSTANT-HEAD CELLS


 MAXIMUM STEPSIZE DURING WHICH ANY PARTICLE CANNOT MOVE MORE THAN ONE CELL
 =  9.940    (WHEN MIN. R.F.=1)  AT K=   1, I=   1, J=  99

 MAXIMUM STEPSIZE WHICH MEETS STABILITY CRITERION OF THE ADVECTION TERM
 (FOR PURE FINITE-DIFFERENCE OPTION, MIXELM=0) 
 =  9.684    (WHEN MIN. R.F.=1)  AT K=   1, I=   1, J=  99


 TOTAL NUMBER OF POINT SOURCES/SINKS PRESENT IN THE FLOW MODEL =       100

 MAXIMUM STEPSIZE WHICH MEETS STABILITY CRITERION OF THE SINK & SOURCE TERM
 =  122.8    (WHEN MIN. R.F.=1)  AT K=   1, I=   1, J=   1

 MAXIMUM STEPSIZE WHICH MEETS STABILITY CRITERION OF THE DISPERSION TERM
 =  2.212    (WHEN MIN. R.F.=1)  AT K=   1, I=   1, J=  99
     5 CALLS TO GCG PACKAGE FOR TRANSPORT TIME STEP  26 IN FLOW TIME STEP   1 STRESS PERIOD   9
    15 TOTAL ITERATIONS
 
 SOLVING FOR HEAD 


     2 CALLS TO PCG ROUTINE FOR TIME STEP   1 IN STRESS PERIOD    9
    20 TOTAL ITERATIONS

 MAXIMUM HEAD CHANGE FOR EACH ITERATION (1 INDICATES THE FIRST INNER ITERATION):

    HEAD CHANGE    HEAD CHANGE    HEAD CHANGE    HEAD CHANGE    HEAD CHANGE 
   LAYER,ROW,COL  LAYER,ROW,COL  LAYER,ROW,COL  LAYER,ROW,COL  LAYER,ROW,COL
 ---------------------------------------------------------------------------
  1  0.6316E-03  0  0.1797E-03  0  0.1013E-03  0  0.5854E-04  0  0.4266E-04
   ( 50,  1, 35)  ( 48,  1, 43)  ( 46,  1, 49)  ( 43,  1, 54)  ( 40,  1, 58)
  0  0.2278E-04  0  0.1446E-04  0 -0.1018E-04  0 -0.5135E-05  0 -0.3750E-05
   ( 50,  1, 54)  ( 50,  1,  1)  (  1,  1, 65)  (  1,  1, 40)  (  1,  1, 46)
  0 -0.3016E-05  0 -0.2531E-05  0 -0.2152E-05  0 -0.1398E-05  0 -0.1072E-05
   (  2,  1, 33)  (  1,  1, 37)  (  4,  1,  5)  (  5,  1, 12)  (  1,  1,  6)
  0 -0.1157E-05  0 -0.1240E-05  0 -0.1075E-05  0 -0.9660E-06  1 -0.2007E-06
   (  3,  1,  1)  (  2,  1,  4)  (  1,  1,  5)  ( 42,  1,  2)  ( 50,  1,  3)

 MAXIMUM RESIDUAL FOR EACH ITERATION (1 INDICATES THE FIRST INNER ITERATION):

    RESIDUAL       RESIDUAL       RESIDUAL       RESIDUAL       RESIDUAL    
   LAYER,ROW,COL  LAYER,ROW,COL  LAYER,ROW,COL  LAYER,ROW,COL  LAYER,ROW,COL
 ---------------------------------------------------------------------------
  1   4.714      0   2.930      0  -1.586      0 -0.8731      0 -0.7487    
   ( 50,  1, 37)  ( 50,  1, 30)  ( 49,  1, 30)  ( 50,  1, 49)  ( 50,  1, 28)
  0 -0.3958      0 -0.2861      0  0.1556      0  0.8603E-01  0  0.5673E-01
   ( 49,  1, 38)  ( 49,  1, 35)  ( 50,  1, 28)  ( 49,  1, 39)  ( 49,  1, 34)
  0 -0.4469E-01  0 -0.4747E-01  0  0.3886E-01  0  0.2502E-01  0  0.1706E-01
   ( 41,  1,  2)  ( 43,  1,  2)  ( 41,  1,  2)  ( 43,  1,  2)  ( 45,  1,  2)
  0 -0.1807E-01  0  0.1849E-01  0  0.1767E-01  0  0.1563E-01  1 -0.4569E-02
   ( 43,  1,  2)  (  1,  1, 99)  ( 43,  1,  2)  ( 45,  1,  2)  (  1,  1, 99)


 FLOW MODEL IS TRANSIENT
 FLOW MODEL CONTAINS CONSTANT-HEAD CELLS


 MAXIMUM STEPSIZE DURING WHICH ANY PARTICLE CANNOT MOVE MORE THAN ONE CELL
 =  9.942    (WHEN MIN. R.F.=1)  AT K=   1, I=   1, J=  99

 MAXIMUM STEPSIZE WHICH MEETS STABILITY CRITERION OF THE ADVECTION TERM
 (FOR PURE FINITE-DIFFERENCE OPTION, MIXELM=0) 
 =  9.687    (WHEN MIN. R.F.=1)  AT K=   1, I=   1, J=  99


 TOTAL NUMBER OF POINT SOURCES/SINKS PRESENT IN THE FLOW MODEL =       100

 MAXIMUM STEPSIZE WHICH MEETS STABILITY CRITERION OF THE SINK & SOURCE TERM
 =  122.8    (WHEN MIN. R.F.=1)  AT K=   1, I=   1, J=   1

 MAXIMUM STEPSIZE WHICH MEETS STABILITY CRITERION OF THE DISPERSION TERM
 =  2.213    (WHEN MIN. R.F.=1)  AT K=   1, I=   1, J=  99
     5 CALLS TO GCG PACKAGE FOR TRANSPORT TIME STEP  27 IN FLOW TIME STEP   1 STRESS PERIOD   9
    15 TOTAL ITERATIONS
 
 SOLVING FOR HEAD 


     2 CALLS TO PCG ROUTINE FOR TIME STEP   1 IN STRESS PERIOD    9
    16 TOTAL ITERATIONS

 MAXIMUM HEAD CHANGE FOR EACH ITERATION (1 INDICATES THE FIRST INNER ITERATION):

    HEAD CHANGE    HEAD CHANGE    HEAD CHANGE    HEAD CHANGE    HEAD CHANGE 
   LAYER,ROW,COL  LAYER,ROW,COL  LAYER,ROW,COL  LAYER,ROW,COL  LAYER,ROW,COL
 ---------------------------------------------------------------------------
  1  0.6301E-03  0  0.1791E-03  0  0.1010E-03  0  0.5845E-04  0  0.4252E-04
   ( 50,  1, 35)  ( 48,  1, 43)  ( 46,  1, 49)  ( 43,  1, 54)  ( 40,  1, 58)
  0  0.2268E-04  0  0.1446E-04  0 -0.1013E-04  0 -0.5073E-05  0 -0.3693E-05
   ( 50,  1, 54)  ( 50,  1,  1)  (  1,  1, 65)  (  1,  1, 40)  (  1,  1, 45)
  0 -0.2936E-05  0 -0.2440E-05  0 -0.2039E-05  0 -0.1310E-05  0 -0.9736E-06
   (  2,  1, 33)  (  2,  1, 38)  (  4,  1,  5)  (  5,  1, 12)  (  1,  1,  6)
  1 -0.2537E-06
   (  4,  1,  2)

 MAXIMUM RESIDUAL FOR EACH ITERATION (1 INDICATES THE FIRST INNER ITERATION):

    RESIDUAL       RESIDUAL       RESIDUAL       RESIDUAL       RESIDUAL    
   LAYER,ROW,COL  LAYER,ROW,COL  LAYER,ROW,COL  LAYER,ROW,COL  LAYER,ROW,COL
 ---------------------------------------------------------------------------
  1   4.700      0   2.927      0  -1.565      0 -0.8702      0 -0.7460    
   ( 50,  1, 37)  ( 50,  1, 30)  ( 49,  1, 30)  ( 50,  1, 49)  ( 50,  1, 28)
  0 -0.3951      0 -0.2851      0  0.1560      0  0.8523E-01  0  0.5605E-01
   ( 49,  1, 38)  ( 49,  1, 34)  ( 50,  1, 28)  ( 49,  1, 39)  ( 49,  1, 34)
  0 -0.4422E-01  0 -0.4652E-01  0  0.3760E-01  0  0.2361E-01  0  0.1564E-01
   ( 41,  1,  2)  ( 43,  1,  2)  ( 41,  1,  2)  ( 43,  1,  2)  ( 45,  1,  2)
  1  0.5030E-02
   ( 35,  1,  3)


 FLOW MODEL IS TRANSIENT
 FLOW MODEL CONTAINS CONSTANT-HEAD CELLS


 MAXIMUM STEPSIZE DURING WHICH ANY PARTICLE CANNOT MOVE MORE THAN ONE CELL
 =  9.945    (WHEN MIN. R.F.=1)  AT K=   1, I=   1, J=  99

 MAXIMUM STEPSIZE WHICH MEETS STABILITY CRITERION OF THE ADVECTION TERM
 (FOR PURE FINITE-DIFFERENCE OPTION, MIXELM=0) 
 =  9.689    (WHEN MIN. R.F.=1)  AT K=   1, I=   1, J=  99


 TOTAL NUMBER OF POINT SOURCES/SINKS PRESENT IN THE FLOW MODEL =       100

 MAXIMUM STEPSIZE WHICH MEETS STABILITY CRITERION OF THE SINK & SOURCE TERM
 =  122.8    (WHEN MIN. R.F.=1)  AT K=   1, I=   1, J=   1

 MAXIMUM STEPSIZE WHICH MEETS STABILITY CRITERION OF THE DISPERSION TERM
 =  2.213    (WHEN MIN. R.F.=1)  AT K=   1, I=   1, J=  99
     5 CALLS TO GCG PACKAGE FOR TRANSPORT TIME STEP  28 IN FLOW TIME STEP   1 STRESS PERIOD   9
    15 TOTAL ITERATIONS
 
 SOLVING FOR HEAD 


     2 CALLS TO PCG ROUTINE FOR TIME STEP   1 IN STRESS PERIOD    9
    20 TOTAL ITERATIONS

 MAXIMUM HEAD CHANGE FOR EACH ITERATION (1 INDICATES THE FIRST INNER ITERATION):

    HEAD CHANGE    HEAD CHANGE    HEAD CHANGE    HEAD CHANGE    HEAD CHANGE 
   LAYER,ROW,COL  LAYER,ROW,COL  LAYER,ROW,COL  LAYER,ROW,COL  LAYER,ROW,COL
 ---------------------------------------------------------------------------
  1  0.6286E-03  0  0.1783E-03  0  0.1006E-03  0  0.5819E-04  0  0.4233E-04
   ( 50,  1, 35)  ( 48,  1, 43)  ( 46,  1, 49)  ( 43,  1, 54)  ( 40,  1, 58)
  0  0.2267E-04  0  0.1417E-04  0 -0.1008E-04  0 -0.5063E-05  0 -0.3733E-05
   ( 50,  1, 54)  ( 50,  1,  1)  (  1,  1, 65)  (  1,  1, 40)  (  1,  1, 45)
  0 -0.2995E-05  0 -0.2533E-05  0 -0.2102E-05  0 -0.1372E-05  0 -0.1033E-05
   (  2,  1, 33)  (  1,  1, 36)  (  4,  1,  5)  (  5,  1, 12)  (  1,  1,  6)
  0 -0.1113E-05  0 -0.1193E-05  0 -0.1037E-05  0 -0.9314E-06  1 -0.1960E-06
   (  3,  1,  1)  (  2,  1,  4)  (  1,  1,  5)  ( 42,  1,  2)  ( 50,  1,  3)

 MAXIMUM RESIDUAL FOR EACH ITERATION (1 INDICATES THE FIRST INNER ITERATION):

    RESIDUAL       RESIDUAL       RESIDUAL       RESIDUAL       RESIDUAL    
   LAYER,ROW,COL  LAYER,ROW,COL  LAYER,ROW,COL  LAYER,ROW,COL  LAYER,ROW,COL
 ---------------------------------------------------------------------------
  1   4.695      0   2.927      0  -1.543      0 -0.8706      0 -0.7455    
   ( 50,  1, 36)  ( 50,  1, 30)  ( 49,  1, 30)  ( 50,  1, 49)  ( 50,  1, 28)
  0 -0.3946      0 -0.2850      0  0.1582      0  0.8567E-01  0  0.5659E-01
   ( 49,  1, 38)  ( 49,  1, 34)  ( 50,  1, 28)  ( 49,  1, 39)  ( 49,  1, 34)
  0 -0.4438E-01  0 -0.4785E-01  0  0.3916E-01  0  0.2405E-01  0  0.1647E-01
   ( 41,  1,  2)  ( 43,  1,  2)  ( 41,  1,  2)  ( 43,  1,  2)  ( 45,  1,  2)
  0 -0.1747E-01  0  0.1775E-01  0  0.1707E-01  0  0.1514E-01  1 -0.4321E-02
   ( 43,  1,  2)  (  1,  1, 99)  ( 43,  1,  2)  ( 45,  1,  2)  (  1,  1, 99)


 FLOW MODEL IS TRANSIENT
 FLOW MODEL CONTAINS CONSTANT-HEAD CELLS


 MAXIMUM STEPSIZE DURING WHICH ANY PARTICLE CANNOT MOVE MORE THAN ONE CELL
 =  9.947    (WHEN MIN. R.F.=1)  AT K=   1, I=   1, J=  99

 MAXIMUM STEPSIZE WHICH MEETS STABILITY CRITERION OF THE ADVECTION TERM
 (FOR PURE FINITE-DIFFERENCE OPTION, MIXELM=0) 
 =  9.691    (WHEN MIN. R.F.=1)  AT K=   1, I=   1, J=  99


 TOTAL NUMBER OF POINT SOURCES/SINKS PRESENT IN THE FLOW MODEL =       100

 MAXIMUM STEPSIZE WHICH MEETS STABILITY CRITERION OF THE SINK & SOURCE TERM
 =  122.8    (WHEN MIN. R.F.=1)  AT K=   1, I=   1, J=   1

 MAXIMUM STEPSIZE WHICH MEETS STABILITY CRITERION OF THE DISPERSION TERM
 =  2.214    (WHEN MIN. R.F.=1)  AT K=   1, I=   1, J=  99
     5 CALLS TO GCG PACKAGE FOR TRANSPORT TIME STEP  29 IN FLOW TIME STEP   1 STRESS PERIOD   9
    15 TOTAL ITERATIONS
 
 SOLVING FOR HEAD 


     2 CALLS TO PCG ROUTINE FOR TIME STEP   1 IN STRESS PERIOD    9
    16 TOTAL ITERATIONS

 MAXIMUM HEAD CHANGE FOR EACH ITERATION (1 INDICATES THE FIRST INNER ITERATION):

    HEAD CHANGE    HEAD CHANGE    HEAD CHANGE    HEAD CHANGE    HEAD CHANGE 
   LAYER,ROW,COL  LAYER,ROW,COL  LAYER,ROW,COL  LAYER,ROW,COL  LAYER,ROW,COL
 ---------------------------------------------------------------------------
  1  0.6268E-03  0  0.1779E-03  0  0.1003E-03  0  0.5804E-04  0  0.4228E-04
   ( 50,  1, 35)  ( 48,  1, 43)  ( 46,  1, 49)  ( 43,  1, 54)  ( 40,  1, 58)
  0  0.2263E-04  0  0.1445E-04  0 -0.1011E-04  0 -0.4984E-05  0 -0.3604E-05
   ( 50,  1, 53)  ( 50,  1,  1)  (  1,  1, 65)  (  1,  1, 40)  (  1,  1, 45)
  0 -0.2836E-05  0 -0.2343E-05  0 -0.1912E-05  0 -0.1211E-05  0 -0.8591E-06
   (  2,  1, 33)  (  2,  1, 38)  (  5,  1,  6)  (  5,  1, 12)  (  1,  1,  6)
  1 -0.2452E-06
   (  4,  1,  2)

 MAXIMUM RESIDUAL FOR EACH ITERATION (1 INDICATES THE FIRST INNER ITERATION):

    RESIDUAL       RESIDUAL       RESIDUAL       RESIDUAL       RESIDUAL    
   LAYER,ROW,COL  LAYER,ROW,COL  LAYER,ROW,COL  LAYER,ROW,COL  LAYER,ROW,COL
 ---------------------------------------------------------------------------
  1   4.688      0   2.918      0  -1.544      0 -0.8667      0 -0.7426    
   ( 50,  1, 36)  ( 50,  1, 30)  ( 49,  1, 29)  ( 50,  1, 49)  ( 50,  1, 28)
  0 -0.3945      0 -0.2851      0  0.1570      0  0.8447E-01  0  0.5537E-01
   ( 49,  1, 38)  ( 49,  1, 34)  ( 50,  1, 28)  ( 49,  1, 39)  ( 49,  1, 34)
  0 -0.4413E-01  0 -0.4551E-01  0  0.3618E-01  0  0.2203E-01  0  0.1407E-01
   ( 41,  1,  2)  ( 43,  1,  2)  ( 41,  1,  2)  ( 43,  1,  2)  ( 45,  1,  2)
  1  0.4393E-02
   ( 35,  1,  3)


 FLOW MODEL IS TRANSIENT
 FLOW MODEL CONTAINS CONSTANT-HEAD CELLS


 MAXIMUM STEPSIZE DURING WHICH ANY PARTICLE CANNOT MOVE MORE THAN ONE CELL
 =  9.949    (WHEN MIN. R.F.=1)  AT K=   1, I=   1, J=  99

 MAXIMUM STEPSIZE WHICH MEETS STABILITY CRITERION OF THE ADVECTION TERM
 (FOR PURE FINITE-DIFFERENCE OPTION, MIXELM=0) 
 =  9.693    (WHEN MIN. R.F.=1)  AT K=   1, I=   1, J=  99


 TOTAL NUMBER OF POINT SOURCES/SINKS PRESENT IN THE FLOW MODEL =       100

 MAXIMUM STEPSIZE WHICH MEETS STABILITY CRITERION OF THE SINK & SOURCE TERM
 =  122.8    (WHEN MIN. R.F.=1)  AT K=   1, I=   1, J=   1

 MAXIMUM STEPSIZE WHICH MEETS STABILITY CRITERION OF THE DISPERSION TERM
 =  2.214    (WHEN MIN. R.F.=1)  AT K=   1, I=   1, J=  99
     5 CALLS TO GCG PACKAGE FOR TRANSPORT TIME STEP  30 IN FLOW TIME STEP   1 STRESS PERIOD   9
    15 TOTAL ITERATIONS
 
 SOLVING FOR HEAD 


     2 CALLS TO PCG ROUTINE FOR TIME STEP   1 IN STRESS PERIOD    9
    20 TOTAL ITERATIONS

 MAXIMUM HEAD CHANGE FOR EACH ITERATION (1 INDICATES THE FIRST INNER ITERATION):

    HEAD CHANGE    HEAD CHANGE    HEAD CHANGE    HEAD CHANGE    HEAD CHANGE 
   LAYER,ROW,COL  LAYER,ROW,COL  LAYER,ROW,COL  LAYER,ROW,COL  LAYER,ROW,COL
 ---------------------------------------------------------------------------
  1  0.6255E-03  0  0.1773E-03  0  0.1002E-03  0  0.5797E-04  0  0.4224E-04
   ( 50,  1, 35)  ( 48,  1, 43)  ( 46,  1, 49)  ( 43,  1, 53)  ( 40,  1, 57)
  0  0.2268E-04  0  0.1413E-04  0 -0.1006E-04  0 -0.5055E-05  0 -0.3739E-05
   ( 50,  1, 53)  ( 50,  1,  1)  (  1,  1, 65)  (  1,  1, 40)  (  1,  1, 45)
  0 -0.3015E-05  0 -0.2561E-05  0 -0.2157E-05  0 -0.1419E-05  0 -0.1067E-05
   (  2,  1, 32)  (  1,  1, 36)  (  5,  1,  6)  (  5,  1, 12)  (  1,  1,  6)
  0 -0.1165E-05  0 -0.1248E-05  0 -0.1059E-05  0 -0.9732E-06  1 -0.1971E-06
   (  3,  1,  1)  (  2,  1,  4)  (  1,  1,  5)  ( 42,  1,  2)  ( 50,  1,  3)

 MAXIMUM RESIDUAL FOR EACH ITERATION (1 INDICATES THE FIRST INNER ITERATION):

    RESIDUAL       RESIDUAL       RESIDUAL       RESIDUAL       RESIDUAL    
   LAYER,ROW,COL  LAYER,ROW,COL  LAYER,ROW,COL  LAYER,ROW,COL  LAYER,ROW,COL
 ---------------------------------------------------------------------------
  1   4.687      0   2.917      0  -1.582      0 -0.8689      0 -0.7423    
   ( 50,  1, 36)  ( 50,  1, 30)  ( 49,  1, 29)  ( 50,  1, 49)  ( 50,  1, 28)
  0 -0.3934      0 -0.2857      0  0.1584      0  0.8543E-01  0  0.5681E-01
   ( 49,  1, 38)  ( 49,  1, 34)  ( 50,  1, 28)  ( 49,  1, 39)  ( 49,  1, 34)
  0 -0.4528E-01  0 -0.4824E-01  0  0.3982E-01  0  0.2441E-01  0  0.1690E-01
   ( 41,  1,  2)  ( 43,  1,  2)  ( 41,  1,  2)  ( 43,  1,  2)  ( 45,  1,  2)
  0 -0.1814E-01  0  0.1851E-01  0  0.1772E-01  0  0.1557E-01  1 -0.4385E-02
   ( 43,  1,  2)  (  1,  1, 99)  ( 43,  1,  2)  ( 45,  1,  2)  (  1,  1, 99)


 FLOW MODEL IS TRANSIENT
 FLOW MODEL CONTAINS CONSTANT-HEAD CELLS


 MAXIMUM STEPSIZE DURING WHICH ANY PARTICLE CANNOT MOVE MORE THAN ONE CELL
 =  9.952    (WHEN MIN. R.F.=1)  AT K=   1, I=   1, J=  99

 MAXIMUM STEPSIZE WHICH MEETS STABILITY CRITERION OF THE ADVECTION TERM
 (FOR PURE FINITE-DIFFERENCE OPTION, MIXELM=0) 
 =  9.696    (WHEN MIN. R.F.=1)  AT K=   1, I=   1, J=  99


 TOTAL NUMBER OF POINT SOURCES/SINKS PRESENT IN THE FLOW MODEL =       100

 MAXIMUM STEPSIZE WHICH MEETS STABILITY CRITERION OF THE SINK & SOURCE TERM
 =  122.8    (WHEN MIN. R.F.=1)  AT K=   1, I=   1, J=   1

 MAXIMUM STEPSIZE WHICH MEETS STABILITY CRITERION OF THE DISPERSION TERM
 =  2.215    (WHEN MIN. R.F.=1)  AT K=   1, I=   1, J=  99
     5 CALLS TO GCG PACKAGE FOR TRANSPORT TIME STEP  31 IN FLOW TIME STEP   1 STRESS PERIOD   9
    15 TOTAL ITERATIONS
 
 SOLVING FOR HEAD 


     2 CALLS TO PCG ROUTINE FOR TIME STEP   1 IN STRESS PERIOD    9
    16 TOTAL ITERATIONS

 MAXIMUM HEAD CHANGE FOR EACH ITERATION (1 INDICATES THE FIRST INNER ITERATION):

    HEAD CHANGE    HEAD CHANGE    HEAD CHANGE    HEAD CHANGE    HEAD CHANGE 
   LAYER,ROW,COL  LAYER,ROW,COL  LAYER,ROW,COL  LAYER,ROW,COL  LAYER,ROW,COL
 ---------------------------------------------------------------------------
  1  0.6239E-03  0  0.1769E-03  0  0.9997E-04  0  0.5779E-04  0  0.4205E-04
   ( 50,  1, 35)  ( 48,  1, 43)  ( 46,  1, 48)  ( 43,  1, 53)  ( 40,  1, 57)
  0  0.2261E-04  0  0.1435E-04  0 -0.1015E-04  0 -0.5020E-05  0 -0.3651E-05
   ( 50,  1, 53)  ( 50,  1,  1)  (  1,  1, 65)  (  1,  1, 40)  (  1,  1, 45)
  0 -0.2919E-05  0 -0.2456E-05  0 -0.2056E-05  0 -0.1338E-05  0 -0.9791E-06
   (  2,  1, 32)  (  2,  1, 38)  (  5,  1,  6)  (  5,  1, 12)  (  1,  1,  6)
  1 -0.2582E-06
   (  4,  1,  2)

 MAXIMUM RESIDUAL FOR EACH ITERATION (1 INDICATES THE FIRST INNER ITERATION):

    RESIDUAL       RESIDUAL       RESIDUAL       RESIDUAL       RESIDUAL    
   LAYER,ROW,COL  LAYER,ROW,COL  LAYER,ROW,COL  LAYER,ROW,COL  LAYER,ROW,COL
 ---------------------------------------------------------------------------
  1   4.678      0   2.910      0  -1.601      0 -0.8659      0 -0.7384    
   ( 50,  1, 36)  ( 50,  1, 30)  ( 49,  1, 29)  ( 50,  1, 49)  ( 50,  1, 28)
  0 -0.3926      0 -0.2849      0  0.1574      0  0.8484E-01  0  0.5557E-01
   ( 49,  1, 38)  ( 49,  1, 34)  ( 50,  1, 28)  ( 49,  1, 38)  ( 49,  1, 34)
  0 -0.4522E-01  0 -0.4682E-01  0  0.3815E-01  0  0.2350E-01  0  0.1568E-01
   ( 41,  1,  2)  ( 43,  1,  2)  ( 41,  1,  2)  ( 43,  1,  2)  ( 45,  1,  2)
  1  0.5146E-02
   ( 35,  1,  3)


 FLOW MODEL IS TRANSIENT
 FLOW MODEL CONTAINS CONSTANT-HEAD CELLS


 MAXIMUM STEPSIZE DURING WHICH ANY PARTICLE CANNOT MOVE MORE THAN ONE CELL
 =  9.954    (WHEN MIN. R.F.=1)  AT K=   1, I=   1, J=  99

 MAXIMUM STEPSIZE WHICH MEETS STABILITY CRITERION OF THE ADVECTION TERM
 (FOR PURE FINITE-DIFFERENCE OPTION, MIXELM=0) 
 =  9.698    (WHEN MIN. R.F.=1)  AT K=   1, I=   1, J=  99


 TOTAL NUMBER OF POINT SOURCES/SINKS PRESENT IN THE FLOW MODEL =       100

 MAXIMUM STEPSIZE WHICH MEETS STABILITY CRITERION OF THE SINK & SOURCE TERM
 =  122.8    (WHEN MIN. R.F.=1)  AT K=   1, I=   1, J=   1

 MAXIMUM STEPSIZE WHICH MEETS STABILITY CRITERION OF THE DISPERSION TERM
 =  2.215    (WHEN MIN. R.F.=1)  AT K=   1, I=   1, J=  99
     5 CALLS TO GCG PACKAGE FOR TRANSPORT TIME STEP  32 IN FLOW TIME STEP   1 STRESS PERIOD   9
    15 TOTAL ITERATIONS
 
 SOLVING FOR HEAD 


     2 CALLS TO PCG ROUTINE FOR TIME STEP   1 IN STRESS PERIOD    9
    16 TOTAL ITERATIONS

 MAXIMUM HEAD CHANGE FOR EACH ITERATION (1 INDICATES THE FIRST INNER ITERATION):

    HEAD CHANGE    HEAD CHANGE    HEAD CHANGE    HEAD CHANGE    HEAD CHANGE 
   LAYER,ROW,COL  LAYER,ROW,COL  LAYER,ROW,COL  LAYER,ROW,COL  LAYER,ROW,COL
 ---------------------------------------------------------------------------
  1  0.6220E-03  0  0.1762E-03  0  0.9971E-04  0  0.5757E-04  0  0.4197E-04
   ( 50,  1, 35)  ( 48,  1, 43)  ( 46,  1, 48)  ( 43,  1, 53)  ( 40,  1, 57)
  0  0.2267E-04  0  0.1411E-04  0 -0.1000E-04  0 -0.4931E-05  0 -0.3624E-05
   ( 50,  1, 53)  ( 50,  1,  1)  (  1,  1, 65)  (  1,  1, 39)  (  1,  1, 45)
  0 -0.2887E-05  0 -0.2408E-05  0 -0.1961E-05  0 -0.1265E-05  0 -0.8973E-06
   (  2,  1, 32)  (  1,  1, 36)  (  4,  1,  4)  (  5,  1, 12)  (  1,  1,  6)
  1 -0.2491E-06
   (  4,  1,  2)

 MAXIMUM RESIDUAL FOR EACH ITERATION (1 INDICATES THE FIRST INNER ITERATION):

    RESIDUAL       RESIDUAL       RESIDUAL       RESIDUAL       RESIDUAL    
   LAYER,ROW,COL  LAYER,ROW,COL  LAYER,ROW,COL  LAYER,ROW,COL  LAYER,ROW,COL
 ---------------------------------------------------------------------------
  1   4.667      0   2.898      0  -1.609      0 -0.8649      0 -0.7383    
   ( 50,  1, 36)  ( 50,  1, 30)  ( 49,  1, 29)  ( 50,  1, 48)  ( 50,  1, 27)
  0 -0.3907      0 -0.2846      0  0.1573      0  0.8455E-01  0  0.5549E-01
   ( 49,  1, 38)  ( 49,  1, 34)  ( 50,  1, 28)  ( 49,  1, 38)  ( 49,  1, 34)
  0 -0.4453E-01  0 -0.4677E-01  0  0.3759E-01  0  0.2212E-01  0  0.1465E-01
   ( 41,  1,  2)  ( 43,  1,  2)  ( 41,  1,  2)  ( 43,  1,  2)  ( 45,  1,  2)
  1  0.4876E-02
   ( 35,  1,  3)


 FLOW MODEL IS TRANSIENT
 FLOW MODEL CONTAINS CONSTANT-HEAD CELLS


 MAXIMUM STEPSIZE DURING WHICH ANY PARTICLE CANNOT MOVE MORE THAN ONE CELL
 =  9.956    (WHEN MIN. R.F.=1)  AT K=   1, I=   1, J=  99

 MAXIMUM STEPSIZE WHICH MEETS STABILITY CRITERION OF THE ADVECTION TERM
 (FOR PURE FINITE-DIFFERENCE OPTION, MIXELM=0) 
 =  9.700    (WHEN MIN. R.F.=1)  AT K=   1, I=   1, J=  99


 TOTAL NUMBER OF POINT SOURCES/SINKS PRESENT IN THE FLOW MODEL =       100

 MAXIMUM STEPSIZE WHICH MEETS STABILITY CRITERION OF THE SINK & SOURCE TERM
 =  122.8    (WHEN MIN. R.F.=1)  AT K=   1, I=   1, J=   1

 MAXIMUM STEPSIZE WHICH MEETS STABILITY CRITERION OF THE DISPERSION TERM
 =  2.216    (WHEN MIN. R.F.=1)  AT K=   1, I=   1, J=  99
     5 CALLS TO GCG PACKAGE FOR TRANSPORT TIME STEP  33 IN FLOW TIME STEP   1 STRESS PERIOD   9
    15 TOTAL ITERATIONS
 
 SOLVING FOR HEAD 


     2 CALLS TO PCG ROUTINE FOR TIME STEP   1 IN STRESS PERIOD    9
    20 TOTAL ITERATIONS

 MAXIMUM HEAD CHANGE FOR EACH ITERATION (1 INDICATES THE FIRST INNER ITERATION):

    HEAD CHANGE    HEAD CHANGE    HEAD CHANGE    HEAD CHANGE    HEAD CHANGE 
   LAYER,ROW,COL  LAYER,ROW,COL  LAYER,ROW,COL  LAYER,ROW,COL  LAYER,ROW,COL
 ---------------------------------------------------------------------------
  1  0.6206E-03  0  0.1757E-03  0  0.9960E-04  0  0.5755E-04  0  0.4190E-04
   ( 50,  1, 34)  ( 48,  1, 42)  ( 46,  1, 48)  ( 43,  1, 53)  ( 40,  1, 57)
  0  0.2257E-04  0  0.1394E-04  0 -0.1002E-04  0 -0.4994E-05  0 -0.3680E-05
   ( 50,  1, 53)  ( 50,  1,  1)  (  1,  1, 65)  (  1,  1, 39)  (  1,  1, 45)
  0 -0.2971E-05  0 -0.2516E-05  0 -0.2122E-05  0 -0.1392E-05  0 -0.1017E-05
   (  2,  1, 32)  (  1,  1, 36)  (  4,  1,  4)  (  5,  1, 12)  (  1,  1,  6)
  0 -0.1110E-05  0 -0.1191E-05  0 -0.1010E-05  0 -0.9320E-06  1 -0.1879E-06
   (  3,  1,  1)  (  2,  1,  4)  (  1,  1,  5)  ( 43,  1,  2)  ( 50,  1,  3)

 MAXIMUM RESIDUAL FOR EACH ITERATION (1 INDICATES THE FIRST INNER ITERATION):

    RESIDUAL       RESIDUAL       RESIDUAL       RESIDUAL       RESIDUAL    
   LAYER,ROW,COL  LAYER,ROW,COL  LAYER,ROW,COL  LAYER,ROW,COL  LAYER,ROW,COL
 ---------------------------------------------------------------------------
  1   4.662      0   2.889      0  -1.612      0 -0.8635      0 -0.7393    
   ( 50,  1, 36)  ( 50,  1, 30)  ( 49,  1, 29)  ( 50,  1, 48)  ( 50,  1, 27)
  0 -0.3903      0 -0.2843      0  0.1554      0  0.8523E-01  0  0.5588E-01
   ( 49,  1, 38)  ( 49,  1, 34)  ( 50,  1, 28)  ( 49,  1, 38)  ( 49,  1, 34)
  0 -0.4576E-01  0 -0.4786E-01  0  0.3941E-01  0  0.2351E-01  0  0.1618E-01
   ( 41,  1,  2)  ( 43,  1,  2)  ( 41,  1,  2)  ( 44,  1,  2)  ( 45,  1,  2)
  0 -0.1723E-01  0  0.1755E-01  0  0.1691E-01  0  0.1495E-01  1 -0.4036E-02
   ( 43,  1,  2)  (  1,  1, 99)  ( 43,  1,  2)  ( 45,  1,  2)  (  1,  1, 99)


 FLOW MODEL IS TRANSIENT
 FLOW MODEL CONTAINS CONSTANT-HEAD CELLS


 MAXIMUM STEPSIZE DURING WHICH ANY PARTICLE CANNOT MOVE MORE THAN ONE CELL
 =  9.959    (WHEN MIN. R.F.=1)  AT K=   1, I=   1, J=  99

 MAXIMUM STEPSIZE WHICH MEETS STABILITY CRITERION OF THE ADVECTION TERM
 (FOR PURE FINITE-DIFFERENCE OPTION, MIXELM=0) 
 =  9.702    (WHEN MIN. R.F.=1)  AT K=   1, I=   1, J=  99


 TOTAL NUMBER OF POINT SOURCES/SINKS PRESENT IN THE FLOW MODEL =       100

 MAXIMUM STEPSIZE WHICH MEETS STABILITY CRITERION OF THE SINK & SOURCE TERM
 =  122.8    (WHEN MIN. R.F.=1)  AT K=   1, I=   1, J=   1

 MAXIMUM STEPSIZE WHICH MEETS STABILITY CRITERION OF THE DISPERSION TERM
 =  2.216    (WHEN MIN. R.F.=1)  AT K=   1, I=   1, J=  99
     5 CALLS TO GCG PACKAGE FOR TRANSPORT TIME STEP  34 IN FLOW TIME STEP   1 STRESS PERIOD   9
    15 TOTAL ITERATIONS
 
 SOLVING FOR HEAD 


     2 CALLS TO PCG ROUTINE FOR TIME STEP   1 IN STRESS PERIOD    9
    16 TOTAL ITERATIONS

 MAXIMUM HEAD CHANGE FOR EACH ITERATION (1 INDICATES THE FIRST INNER ITERATION):

    HEAD CHANGE    HEAD CHANGE    HEAD CHANGE    HEAD CHANGE    HEAD CHANGE 
   LAYER,ROW,COL  LAYER,ROW,COL  LAYER,ROW,COL  LAYER,ROW,COL  LAYER,ROW,COL
 ---------------------------------------------------------------------------
  1  0.6197E-03  0  0.1753E-03  0  0.9944E-04  0  0.5746E-04  0  0.4184E-04
   ( 50,  1, 34)  ( 48,  1, 42)  ( 46,  1, 48)  ( 43,  1, 53)  ( 40,  1, 57)
  0  0.2247E-04  0  0.1421E-04  0 -0.1009E-04  0 -0.4947E-05  0 -0.3596E-05
   ( 50,  1, 53)  ( 50,  1,  1)  (  1,  1, 65)  (  1,  1, 39)  (  1,  1, 45)
  0 -0.2857E-05  0 -0.2386E-05  0 -0.2010E-05  0 -0.1295E-05  0 -0.9175E-06
   (  2,  1, 32)  (  1,  1, 36)  (  4,  1,  4)  (  5,  1, 12)  (  1,  1,  6)
  1 -0.2588E-06
   (  4,  1,  2)

 MAXIMUM RESIDUAL FOR EACH ITERATION (1 INDICATES THE FIRST INNER ITERATION):

    RESIDUAL       RESIDUAL       RESIDUAL       RESIDUAL       RESIDUAL    
   LAYER,ROW,COL  LAYER,ROW,COL  LAYER,ROW,COL  LAYER,ROW,COL  LAYER,ROW,COL
 ---------------------------------------------------------------------------
  1   4.647      0   2.864      0  -1.605      0 -0.8596      0 -0.7404    
   ( 50,  1, 36)  ( 50,  1, 30)  ( 49,  1, 29)  ( 50,  1, 48)  ( 50,  1, 27)
  0 -0.3895      0 -0.2837      0  0.1518      0  0.8457E-01  0  0.5483E-01
   ( 49,  1, 37)  ( 49,  1, 34)  ( 50,  1, 28)  ( 49,  1, 38)  ( 49,  1, 34)
  0 -0.4566E-01  0 -0.4615E-01  0  0.3745E-01  0  0.2243E-01  0  0.1475E-01
   ( 41,  1,  2)  ( 43,  1,  2)  ( 41,  1,  2)  ( 43,  1,  2)  ( 45,  1,  2)
  1  0.4802E-02
   ( 35,  1,  3)


 FLOW MODEL IS TRANSIENT
 FLOW MODEL CONTAINS CONSTANT-HEAD CELLS


 MAXIMUM STEPSIZE DURING WHICH ANY PARTICLE CANNOT MOVE MORE THAN ONE CELL
 =  9.961    (WHEN MIN. R.F.=1)  AT K=   1, I=   1, J=  99

 MAXIMUM STEPSIZE WHICH MEETS STABILITY CRITERION OF THE ADVECTION TERM
 (FOR PURE FINITE-DIFFERENCE OPTION, MIXELM=0) 
 =  9.704    (WHEN MIN. R.F.=1)  AT K=   1, I=   1, J=  99


 TOTAL NUMBER OF POINT SOURCES/SINKS PRESENT IN THE FLOW MODEL =       100

 MAXIMUM STEPSIZE WHICH MEETS STABILITY CRITERION OF THE SINK & SOURCE TERM
 =  122.8    (WHEN MIN. R.F.=1)  AT K=   1, I=   1, J=   1

 MAXIMUM STEPSIZE WHICH MEETS STABILITY CRITERION OF THE DISPERSION TERM
 =  2.217    (WHEN MIN. R.F.=1)  AT K=   1, I=   1, J=  99
     5 CALLS TO GCG PACKAGE FOR TRANSPORT TIME STEP  35 IN FLOW TIME STEP   1 STRESS PERIOD   9
    15 TOTAL ITERATIONS
 
 SOLVING FOR HEAD 


     2 CALLS TO PCG ROUTINE FOR TIME STEP   1 IN STRESS PERIOD    9
    16 TOTAL ITERATIONS

 MAXIMUM HEAD CHANGE FOR EACH ITERATION (1 INDICATES THE FIRST INNER ITERATION):

    HEAD CHANGE    HEAD CHANGE    HEAD CHANGE    HEAD CHANGE    HEAD CHANGE 
   LAYER,ROW,COL  LAYER,ROW,COL  LAYER,ROW,COL  LAYER,ROW,COL  LAYER,ROW,COL
 ---------------------------------------------------------------------------
  1  0.6185E-03  0  0.1748E-03  0  0.9902E-04  0  0.5724E-04  0  0.4168E-04
   ( 50,  1, 34)  ( 48,  1, 42)  ( 46,  1, 48)  ( 43,  1, 53)  ( 40,  1, 57)
  0  0.2244E-04  0  0.1387E-04  0 -0.1001E-04  0 -0.4957E-05  0 -0.3639E-05
   ( 50,  1, 53)  ( 50,  1,  1)  (  1,  1, 65)  (  1,  1, 39)  (  1,  1, 45)
  0 -0.2926E-05  0 -0.2472E-05  0 -0.2086E-05  0 -0.1360E-05  0 -0.9747E-06
   (  2,  1, 32)  (  1,  1, 36)  (  4,  1,  4)  (  4,  1, 10)  (  1,  1,  6)
  1 -0.2627E-06
   (  4,  1,  2)

 MAXIMUM RESIDUAL FOR EACH ITERATION (1 INDICATES THE FIRST INNER ITERATION):

    RESIDUAL       RESIDUAL       RESIDUAL       RESIDUAL       RESIDUAL    
   LAYER,ROW,COL  LAYER,ROW,COL  LAYER,ROW,COL  LAYER,ROW,COL  LAYER,ROW,COL
 ---------------------------------------------------------------------------
  1   4.633      0   2.839      0  -1.606      0 -0.8609      0 -0.7412    
   ( 50,  1, 36)  ( 50,  1, 30)  ( 49,  1, 29)  ( 50,  1, 48)  ( 50,  1, 27)
  0 -0.3898      0 -0.2835      0  0.1512      0  0.8496E-01  0  0.5534E-01
   ( 49,  1, 37)  ( 49,  1, 34)  ( 50,  1, 27)  ( 49,  1, 38)  ( 49,  1, 34)
  0 -0.4576E-01  0 -0.4734E-01  0  0.3883E-01  0  0.2314E-01  0  0.1554E-01
   ( 41,  1,  2)  ( 43,  1,  2)  ( 41,  1,  2)  ( 44,  1,  2)  ( 45,  1,  2)
  1  0.5289E-02
   ( 35,  1,  3)


 FLOW MODEL IS TRANSIENT
 FLOW MODEL CONTAINS CONSTANT-HEAD CELLS


 MAXIMUM STEPSIZE DURING WHICH ANY PARTICLE CANNOT MOVE MORE THAN ONE CELL
 =  9.963    (WHEN MIN. R.F.=1)  AT K=   1, I=   1, J=  99

 MAXIMUM STEPSIZE WHICH MEETS STABILITY CRITERION OF THE ADVECTION TERM
 (FOR PURE FINITE-DIFFERENCE OPTION, MIXELM=0) 
 =  9.706    (WHEN MIN. R.F.=1)  AT K=   1, I=   1, J=  99


 TOTAL NUMBER OF POINT SOURCES/SINKS PRESENT IN THE FLOW MODEL =       100

 MAXIMUM STEPSIZE WHICH MEETS STABILITY CRITERION OF THE SINK & SOURCE TERM
 =  122.8    (WHEN MIN. R.F.=1)  AT K=   1, I=   1, J=   1

 MAXIMUM STEPSIZE WHICH MEETS STABILITY CRITERION OF THE DISPERSION TERM
 =  2.217    (WHEN MIN. R.F.=1)  AT K=   1, I=   1, J=  99
     5 CALLS TO GCG PACKAGE FOR TRANSPORT TIME STEP  36 IN FLOW TIME STEP   1 STRESS PERIOD   9
    15 TOTAL ITERATIONS
 
 SOLVING FOR HEAD 


     2 CALLS TO PCG ROUTINE FOR TIME STEP   1 IN STRESS PERIOD    9
    21 TOTAL ITERATIONS

 MAXIMUM HEAD CHANGE FOR EACH ITERATION (1 INDICATES THE FIRST INNER ITERATION):

    HEAD CHANGE    HEAD CHANGE    HEAD CHANGE    HEAD CHANGE    HEAD CHANGE 
   LAYER,ROW,COL  LAYER,ROW,COL  LAYER,ROW,COL  LAYER,ROW,COL  LAYER,ROW,COL
 ---------------------------------------------------------------------------
  1  0.6172E-03  0  0.1742E-03  0  0.9887E-04  0  0.5716E-04  0  0.4153E-04
   ( 50,  1, 34)  ( 48,  1, 42)  ( 46,  1, 48)  ( 43,  1, 53)  ( 40,  1, 57)
  0  0.2234E-04  0 -0.1373E-04  0 -0.1005E-04  0 -0.4996E-05  0 -0.3677E-05
   ( 50,  1, 53)  (  3,  1, 61)  (  1,  1, 65)  (  1,  1, 39)  (  1,  1, 45)
  0 -0.3004E-05  0 -0.2572E-05  0 -0.2229E-05  0 -0.1480E-05  0 -0.1084E-05
   (  2,  1, 32)  (  1,  1, 36)  (  4,  1,  4)  (  4,  1, 10)  (  1,  1,  6)
  0 -0.1220E-05  0 -0.1307E-05  0 -0.1053E-05  0 -0.1020E-05  0 -0.8906E-06
   (  3,  1,  1)  (  2,  1,  4)  (  1,  1,  5)  ( 43,  1,  2)  ( 49,  1,  3)
  1  0.1406E-06
   (  2,  1, 93)

 MAXIMUM RESIDUAL FOR EACH ITERATION (1 INDICATES THE FIRST INNER ITERATION):

    RESIDUAL       RESIDUAL       RESIDUAL       RESIDUAL       RESIDUAL    
   LAYER,ROW,COL  LAYER,ROW,COL  LAYER,ROW,COL  LAYER,ROW,COL  LAYER,ROW,COL
 ---------------------------------------------------------------------------
  1   4.620      0   2.838      0  -1.601      0 -0.8575      0 -0.7410    
   ( 50,  1, 36)  ( 50,  1, 29)  ( 49,  1, 29)  ( 50,  1, 48)  ( 50,  1, 27)
  0 -0.3895      0 -0.2826      0  0.1523      0  0.8522E-01  0  0.5574E-01
   ( 49,  1, 37)  ( 49,  1, 34)  ( 50,  1, 27)  ( 49,  1, 38)  ( 49,  1, 34)
  0 -0.4676E-01  0 -0.4869E-01  0  0.4056E-01  0  0.2499E-01  0  0.1687E-01
   ( 41,  1,  2)  ( 44,  1,  2)  ( 41,  1,  2)  ( 44,  1,  2)  ( 45,  1,  2)
  0 -0.1927E-01  0  0.1916E-01  0  0.1822E-01  0  0.1582E-01  0 -0.1196E-01
   ( 44,  1,  2)  (  1,  1, 99)  ( 43,  1,  2)  ( 45,  1,  2)  (  1,  1, 99)
  1 -0.6612E-02
   (  1,  1, 99)


 FLOW MODEL IS TRANSIENT
 FLOW MODEL CONTAINS CONSTANT-HEAD CELLS


 MAXIMUM STEPSIZE DURING WHICH ANY PARTICLE CANNOT MOVE MORE THAN ONE CELL
 =  9.965    (WHEN MIN. R.F.=1)  AT K=   1, I=   1, J=  99

 MAXIMUM STEPSIZE WHICH MEETS STABILITY CRITERION OF THE ADVECTION TERM
 (FOR PURE FINITE-DIFFERENCE OPTION, MIXELM=0) 
 =  9.709    (WHEN MIN. R.F.=1)  AT K=   1, I=   1, J=  99


 TOTAL NUMBER OF POINT SOURCES/SINKS PRESENT IN THE FLOW MODEL =       100

 MAXIMUM STEPSIZE WHICH MEETS STABILITY CRITERION OF THE SINK & SOURCE TERM
 =  122.8    (WHEN MIN. R.F.=1)  AT K=   1, I=   1, J=   1

 MAXIMUM STEPSIZE WHICH MEETS STABILITY CRITERION OF THE DISPERSION TERM
 =  2.218    (WHEN MIN. R.F.=1)  AT K=   1, I=   1, J=  99
     5 CALLS TO GCG PACKAGE FOR TRANSPORT TIME STEP  37 IN FLOW TIME STEP   1 STRESS PERIOD   9
    15 TOTAL ITERATIONS
 
 SOLVING FOR HEAD 


     2 CALLS TO PCG ROUTINE FOR TIME STEP   1 IN STRESS PERIOD    9
    16 TOTAL ITERATIONS

 MAXIMUM HEAD CHANGE FOR EACH ITERATION (1 INDICATES THE FIRST INNER ITERATION):

    HEAD CHANGE    HEAD CHANGE    HEAD CHANGE    HEAD CHANGE    HEAD CHANGE 
   LAYER,ROW,COL  LAYER,ROW,COL  LAYER,ROW,COL  LAYER,ROW,COL  LAYER,ROW,COL
 ---------------------------------------------------------------------------
  1  0.6113E-03  0  0.1704E-03  0  0.9467E-04  0  0.5380E-04  0  0.3842E-04
   ( 50,  1, 34)  ( 48,  1, 42)  ( 46,  1, 48)  ( 43,  1, 53)  ( 40,  1, 57)
  0  0.2016E-04  0  0.1252E-04  0 -0.8822E-05  0 -0.4388E-05  0 -0.3229E-05
   ( 34,  1, 57)  ( 50,  1,  1)  (  1,  1, 65)  (  1,  1, 38)  (  1,  1, 44)
  0 -0.2457E-05  0 -0.2100E-05  0 -0.1822E-05  0 -0.1194E-05  0 -0.8281E-06
   (  2,  1, 32)  (  4,  1, 11)  (  5,  1,  5)  (  4,  1, 10)  (  1,  1, 13)
  1 -0.2183E-06
   (  1,  1, 90)

 MAXIMUM RESIDUAL FOR EACH ITERATION (1 INDICATES THE FIRST INNER ITERATION):

    RESIDUAL       RESIDUAL       RESIDUAL       RESIDUAL       RESIDUAL    
   LAYER,ROW,COL  LAYER,ROW,COL  LAYER,ROW,COL  LAYER,ROW,COL  LAYER,ROW,COL
 ---------------------------------------------------------------------------
  1   4.572      0   2.799      0  -1.530      0 -0.8139      0 -0.6945    
   ( 50,  1, 36)  ( 50,  1, 29)  ( 49,  1, 29)  ( 50,  1, 48)  ( 50,  1, 27)
  0 -0.3621      0 -0.2583      0  0.1369      0  0.7596E-01  0  0.4835E-01
   ( 49,  1, 37)  ( 49,  1, 34)  ( 50,  1, 27)  ( 49,  1, 38)  ( 49,  1, 33)
  0 -0.4082E-01  0 -0.4074E-01  0  0.3246E-01  0  0.2074E-01  0  0.1336E-01
   ( 41,  1,  2)  ( 44,  1,  2)  ( 41,  1,  2)  ( 44,  1,  2)  ( 46,  1,  2)
  1  0.4123E-02
   ( 49,  1, 29)


 FLOW MODEL IS TRANSIENT
 FLOW MODEL CONTAINS CONSTANT-HEAD CELLS


 MAXIMUM STEPSIZE DURING WHICH ANY PARTICLE CANNOT MOVE MORE THAN ONE CELL
 =  9.968    (WHEN MIN. R.F.=1)  AT K=   1, I=   1, J=  99

 MAXIMUM STEPSIZE WHICH MEETS STABILITY CRITERION OF THE ADVECTION TERM
 (FOR PURE FINITE-DIFFERENCE OPTION, MIXELM=0) 
 =  9.711    (WHEN MIN. R.F.=1)  AT K=   1, I=   1, J=  99


 TOTAL NUMBER OF POINT SOURCES/SINKS PRESENT IN THE FLOW MODEL =       100

 MAXIMUM STEPSIZE WHICH MEETS STABILITY CRITERION OF THE SINK & SOURCE TERM
 =  122.8    (WHEN MIN. R.F.=1)  AT K=   1, I=   1, J=   1

 MAXIMUM STEPSIZE WHICH MEETS STABILITY CRITERION OF THE DISPERSION TERM
 =  2.218    (WHEN MIN. R.F.=1)  AT K=   1, I=   1, J=  99
     5 CALLS TO GCG PACKAGE FOR TRANSPORT TIME STEP  38 IN FLOW TIME STEP   1 STRESS PERIOD   9
    15 TOTAL ITERATIONS
  MAXIMUM CONCENTRATION CHANGES FOR EACH ITERATION:
  MAX. CHANGE LAYER,ROW,COL MAX. CHANGE LAYER,ROW,COL MAX. CHANGE LAYER,ROW,COL MAX. CHANGE LAYER,ROW,COL MAX. CHANGE LAYER,ROW,COL
 ------------------------------------------------------------------------------------------------------------------------------------
   0.1568     (  1,  1, 99)  0.2402E-02 (  1,  1, 99)  0.6300E-04 (  1,  1, 99)  0.1907E-05 (  2,  1, 96)  0.8941E-07 (  2,  1, 98)
   0.1983E-02 (  1,  1, 97)  0.8479E-04 (  1,  1, 98)  0.1594E-05 (  2,  1, 96)  0.5960E-07 (  1,  1, 99)  0.8231E-04 ( 10,  1, 98)
   0.2533E-05 (  9,  1, 97)  0.8941E-07 (  8,  1, 96)  0.7704E-05 (  8,  1, 96)  0.2682E-06 (  9,  1, 97)   0.000     (  1,  1,  1)



 >>>>>>>>>>>>>>>>>>>>>>>>>>>>>>>>>>>>>>>>>>>>>>>>>>>>>>>FOR COMPONENT NO. 01<<<<<<<<<<<<<<<<<<<<<<<<<<<<<<<<<<<<<<<<<<<<<<<<<<<<<<<


                                            -------------------------------------------
                                                      TRANSPORT STEP NO.   38
                                            -------------------------------------------

 TOTAL ELAPSED TIME SINCE BEGINNING OF SIMULATION =   3287.000       D
 .....................................................................

                     CUMMULATIVE MASS BUDGETS AT END OF TRANSPORT STEP   38, TIME STEP    1, STRESS PERIOD    9
                     ------------------------------------------------------------------------------------------

                                                             IN                           OUT
                                                      ----------------             ----------------
                               CONSTANT CONCENTRATION:    3710438.                   -2194994.    
                                        CONSTANT HEAD:    0.000000                    0.000000    
                                                WELLS:    0.000000                    0.000000    
                               MASS STOR (FLOW MODEL):    147.8228                   -2802.313    
                                MASS STORAGE (SOLUTE):    1473.383                   -1514265.    
                            ---------------------------------------------------------------------------
                                              [TOTAL]:    3712059.        K          -3712061.        K

                                                          NET (IN - OUT):   -1.500000    
                                                   DISCREPANCY (PERCENT):  -0.4040883E-04

 HEAD WILL BE SAVED ON UNIT   99 AT END OF TIME STEP   1, STRESS PERIOD    9
1
  MASS BUDGET FOR ENTIRE MODEL AT END OF TIME STEP  1 IN STRESS PERIOD   9
  ------------------------------------------------------------------------------

     CUMULATIVE MASS      M       RATES FOR THIS TIME STEP      M/T
     ------------------                 ------------------------

           IN:                                      IN:
           ---                                      ---
             STORAGE =      105030.9141               STORAGE =          29.6720
       CONSTANT HEAD =    47458980.0000         CONSTANT HEAD =        7985.2920
               WELLS =    46859468.0000                 WELLS =       14256.0000
                DCDT =        2592.5430                  DCDT =       3.5213E-03

            TOTAL IN =    94426072.0000              TOTAL IN =       22270.9688

          OUT:                                     OUT:
          ----                                     ----
             STORAGE =     3997475.7500               STORAGE =          30.5266
       CONSTANT HEAD =    89220768.0000         CONSTANT HEAD =       22093.0117
               WELLS =           0.0000                 WELLS =           0.0000
                DCDT =     1209657.0000                  DCDT =         148.4535

           TOTAL OUT =    94427896.0000             TOTAL OUT =       22271.9922

            IN - OUT =       -1824.0000              IN - OUT =          -1.0234

 PERCENT DISCREPANCY =          -0.00     PERCENT DISCREPANCY =          -0.00



0


          TIME SUMMARY AT END OF TRANSPORT STEP   38 IN TIME STEP    1 IN STRESS PERIOD   9
                    SECONDS     MINUTES      HOURS       DAYS        YEARS
                    -----------------------------------------------------------
  TRANS STEP LENGTH 6.41967E+05  10699.      178.32      7.4302     2.03427E-02
   TIME STEP LENGTH 3.15360E+07 5.25600E+05  8760.0      365.00     0.99932    
 STRESS PERIOD TIME 3.15360E+07 5.25600E+05  8760.0      365.00     0.99932    
         TOTAL TIME 2.83997E+08 4.73328E+06  78888.      3287.0      8.9993    
1
